mutag_d1
 OpenBabel01191712022D

 26 28  0  0  0  0  0  0  0  0999 V2000
    3.4641    1.0000    0.0000 C   0  0  0  0  0  0  0  0  0  0  0  0
    3.4641   -0.0000    0.0000 C   0  0  0  0  0  0  0  0  0  0  0  0
    2.5981   -0.5000    0.0000 C   0  0  0  0  0  0  0  0  0  0  0  0
    1.7321    0.0000    0.0000 C   0  0  0  0  0  0  0  0  0  0  0  0
    1.7321    1.0000    0.0000 C   0  0  0  0  0  0  0  0  0  0  0  0
    2.5981    1.5000    0.0000 C   0  0  0  0  0  0  0  0  0  0  0  0
    4.3301    1.5000    0.0000 H   0  0  0  0  0  0  0  0  0  0  0  0
    4.3301   -0.5000    0.0000 H   0  0  0  0  0  0  0  0  0  0  0  0
    2.5981   -1.5000    0.0000 H   0  0  0  0  0  0  0  0  0  0  0  0
    2.5981    2.5000    0.0000 H   0  0  0  0  0  0  0  0  0  0  0  0
    0.8660   -0.5000    0.0000 C   0  0  0  0  0  0  0  0  0  0  0  0
    0.0000   -0.0000    0.0000 C   0  0  0  0  0  0  0  0  0  0  0  0
    0.0000    1.0000    0.0000 C   0  0  0  0  0  0  0  0  0  0  0  0
    0.8660    1.5000    0.0000 C   0  0  0  0  0  0  0  0  0  0  0  0
   -0.8660    1.5000    0.0000 H   0  0  0  0  0  0  0  0  0  0  0  0
    0.8660    2.5000    0.0000 H   0  0  0  0  0  0  0  0  0  0  0  0
    0.8660   -1.5000    0.0000 C   0  0  0  0  0  0  0  0  0  0  0  0
   -0.0000   -2.0000    0.0000 C   0  0  0  0  0  0  0  0  0  0  0  0
   -0.8660   -1.5000    0.0000 C   0  0  0  0  0  0  0  0  0  0  0  0
   -0.8660   -0.5000    0.0000 C   0  0  0  0  0  0  0  0  0  0  0  0
    1.7321   -2.0000    0.0000 H   0  0  0  0  0  0  0  0  0  0  0  0
   -0.0000   -3.0000    0.0000 H   0  0  0  0  0  0  0  0  0  0  0  0
   -1.7321    0.0000    0.0000 H   0  0  0  0  0  0  0  0  0  0  0  0
   -1.7321   -2.0000    0.0000 N   0  0  0  0  0  0  0  0  0  0  0  0
   -2.5981   -1.5000    0.0000 O   0  0  0  0  0  0  0  0  0  0  0  0
   -1.7321   -3.0000    0.0000 O   0  0  0  0  0  0  0  0  0  0  0  0
  1  2  2  0  0  0  0
  1  7  1  0  0  0  0
  2  3  1  0  0  0  0
  2  8  1  0  0  0  0
  3  4  2  0  0  0  0
  3  9  1  0  0  0  0
  4  5  1  0  0  0  0
  4 11  1  0  0  0  0
  5  6  2  0  0  0  0
  6  1  1  0  0  0  0
  6 10  1  0  0  0  0
 11 12  2  0  0  0  0
 11 17  1  0  0  0  0
 12 13  1  0  0  0  0
 13 14  2  0  0  0  0
 13 15  1  0  0  0  0
 14  5  1  0  0  0  0
 14 16  1  0  0  0  0
 17 18  2  0  0  0  0
 17 21  1  0  0  0  0
 18 19  1  0  0  0  0
 18 22  1  0  0  0  0
 19 20  2  0  0  0  0
 20 12  1  0  0  0  0
 20 23  1  0  0  0  0
 24 19  1  0  0  0  0
 24 25  2  0  0  0  0
 24 26  2  0  0  0  0
M  END
>  <activity>
Active

$$$$
mutag_d10
 OpenBabel01191712022D

 28 30  0  0  0  0  0  0  0  0999 V2000
    3.3527   -0.0007    0.0000 C   0  0  0  0  0  0  0  0  0  0  0  0
    2.5147   -0.4843    0.0000 C   0  0  0  0  0  0  0  0  0  0  0  0
    1.6763   -0.0003    0.0000 C   0  0  0  0  0  0  0  0  0  0  0  0
    1.6765    0.9678    0.0000 C   0  0  0  0  0  0  0  0  0  0  0  0
    2.5150    1.4515    0.0000 C   0  0  0  0  0  0  0  0  0  0  0  0
    3.3529    0.9675    0.0000 C   0  0  0  0  0  0  0  0  0  0  0  0
   -0.0000   -0.0000    0.0000 C   0  0  0  0  0  0  0  0  0  0  0  0
   -0.8385   -0.4837    0.0000 C   0  0  0  0  0  0  0  0  0  0  0  0
   -1.6763    0.0003    0.0000 C   0  0  0  0  0  0  0  0  0  0  0  0
   -1.6761    0.9685    0.0000 C   0  0  0  0  0  0  0  0  0  0  0  0
   -0.8381    1.4522    0.0000 C   0  0  0  0  0  0  0  0  0  0  0  0
    0.0002    0.9682    0.0000 C   0  0  0  0  0  0  0  0  0  0  0  0
    0.8383   -0.4840    0.0000 C   0  0  0  0  0  0  0  0  0  0  0  0
    4.1905   -0.4846    0.0000 N   0  0  0  0  0  0  0  0  0  0  0  0
    4.2915   -1.4469    0.0000 O   0  0  0  0  0  0  0  0  0  0  0  0
    4.9734    0.0840    0.0000 O   0  0  0  0  0  0  0  0  0  0  0  0
   -2.5144   -0.4833    0.0000 C   0  0  0  0  0  0  0  0  0  0  0  0
    2.5144   -1.4843    0.0000 H   0  0  0  0  0  0  0  0  0  0  0  0
    2.5153    2.4515    0.0000 H   0  0  0  0  0  0  0  0  0  0  0  0
    4.2190    1.4673    0.0000 H   0  0  0  0  0  0  0  0  0  0  0  0
   -0.8388   -1.4837    0.0000 H   0  0  0  0  0  0  0  0  0  0  0  0
   -2.5421    1.4687    0.0000 H   0  0  0  0  0  0  0  0  0  0  0  0
   -0.8381    2.4522    0.0000 H   0  0  0  0  0  0  0  0  0  0  0  0
   -3.4609   -0.6842    0.0000 H   0  0  0  0  0  0  0  0  0  0  0  0
   -2.8136   -1.4034    0.0000 H   0  0  0  0  0  0  0  0  0  0  0  0
   -2.7153    0.4632    0.0000 H   0  0  0  0  0  0  0  0  0  0  0  0
    0.8383   -1.4840    0.0000 H   0  0  0  0  0  0  0  0  0  0  0  0
    1.7043   -0.9840    0.0000 H   0  0  0  0  0  0  0  0  0  0  0  0
  1  2  2  0  0  0  0
  1 14  1  0  0  0  0
  2  3  1  0  0  0  0
  2 18  1  0  0  0  0
  3  4  2  0  0  0  0
  3 13  1  0  0  0  0
  4  5  1  0  0  0  0
  4 12  1  0  0  0  0
  5  6  2  0  0  0  0
  5 19  1  0  0  0  0
  6  1  1  0  0  0  0
  6 20  1  0  0  0  0
  7  8  2  0  0  0  0
  8  9  1  0  0  0  0
  8 21  1  0  0  0  0
  9 10  2  0  0  0  0
  9 17  1  0  0  0  0
 10 11  1  0  0  0  0
 10 22  1  0  0  0  0
 11 12  2  0  0  0  0
 11 23  1  0  0  0  0
 12  7  1  0  0  0  0
 13  7  1  0  0  0  0
 13 27  1  0  0  0  0
 13 28  1  0  0  0  0
 14 15  2  0  0  0  0
 14 16  2  0  0  0  0
 17 24  1  0  0  0  0
 17 25  1  0  0  0  0
 17 26  1  0  0  0  0
M  END
>  <activity>
Active

$$$$
mutag_d100
 OpenBabel01191712022D

 26 27  0  0  0  0  0  0  0  0999 V2000
    2.5981   -1.5000    0.0000 C   0  0  0  0  0  0  0  0  0  0  0  0
    1.7321   -2.0000    0.0000 C   0  0  0  0  0  0  0  0  0  0  0  0
    0.8660   -1.5000    0.0000 C   0  0  0  0  0  0  0  0  0  0  0  0
    0.8660   -0.5000    0.0000 C   0  0  0  0  0  0  0  0  0  0  0  0
    1.7321    0.0000    0.0000 C   0  0  0  0  0  0  0  0  0  0  0  0
    2.5981   -0.5000    0.0000 C   0  0  0  0  0  0  0  0  0  0  0  0
    3.4641   -2.0000    0.0000 H   0  0  0  0  0  0  0  0  0  0  0  0
    1.7321   -3.0000    0.0000 H   0  0  0  0  0  0  0  0  0  0  0  0
    0.0000   -2.0000    0.0000 H   0  0  0  0  0  0  0  0  0  0  0  0
    1.7321    1.0000    0.0000 H   0  0  0  0  0  0  0  0  0  0  0  0
    0.0000   -0.0000    0.0000 C   0  0  0  0  0  0  0  0  0  0  0  0
   -0.8660   -0.5000    0.0000 C   0  0  0  0  0  0  0  0  0  0  0  0
   -1.7321   -0.0000    0.0000 C   0  0  0  0  0  0  0  0  0  0  0  0
   -1.7321    1.0000    0.0000 C   0  0  0  0  0  0  0  0  0  0  0  0
   -0.8660    1.5000    0.0000 C   0  0  0  0  0  0  0  0  0  0  0  0
   -0.0000    1.0000    0.0000 C   0  0  0  0  0  0  0  0  0  0  0  0
   -0.8660   -1.5000    0.0000 H   0  0  0  0  0  0  0  0  0  0  0  0
   -2.5981   -0.5000    0.0000 H   0  0  0  0  0  0  0  0  0  0  0  0
   -2.5981    1.5000    0.0000 H   0  0  0  0  0  0  0  0  0  0  0  0
    0.8660    1.5000    0.0000 H   0  0  0  0  0  0  0  0  0  0  0  0
   -0.8660    2.5000    0.0000 N   0  0  0  0  0  0  0  0  0  0  0  0
    3.4641    0.0000    0.0000 N   0  0  0  0  0  0  0  0  0  0  0  0
    4.3301   -0.5000    0.0000 O   0  0  0  0  0  0  0  0  0  0  0  0
    3.4641    1.0000    0.0000 O   0  0  0  0  0  0  0  0  0  0  0  0
   -0.0000    3.0000    0.0000 H   0  0  0  0  0  0  0  0  0  0  0  0
   -1.7321    3.0000    0.0000 H   0  0  0  0  0  0  0  0  0  0  0  0
  1  2  2  0  0  0  0
  1  7  1  0  0  0  0
  2  3  1  0  0  0  0
  2  8  1  0  0  0  0
  3  4  2  0  0  0  0
  3  9  1  0  0  0  0
  4  5  1  0  0  0  0
  4 11  1  0  0  0  0
  5  6  2  0  0  0  0
  5 10  1  0  0  0  0
  6  1  1  0  0  0  0
  6 22  1  0  0  0  0
 11 12  2  0  0  0  0
 12 13  1  0  0  0  0
 12 17  1  0  0  0  0
 13 14  2  0  0  0  0
 13 18  1  0  0  0  0
 14 15  1  0  0  0  0
 14 19  1  0  0  0  0
 15 16  2  0  0  0  0
 15 21  1  0  0  0  0
 16 11  1  0  0  0  0
 16 20  1  0  0  0  0
 21 25  1  0  0  0  0
 21 26  1  0  0  0  0
 22 23  2  0  0  0  0
 22 24  2  0  0  0  0
M  END
>  <activity>
Inactive

$$$$
mutag_d101
 OpenBabel01191712022D

 38 42  0  0  0  0  0  0  0  0999 V2000
    1.6228    1.8322    0.0000 C   0  0  0  0  0  0  0  0  0  0  0  0
    2.4243    1.3556    0.0000 C   0  0  0  0  0  0  0  0  0  0  0  0
    2.4122    0.4290    0.0000 C   0  0  0  0  0  0  0  0  0  0  0  0
    1.5985   -0.0209    0.0000 C   0  0  0  0  0  0  0  0  0  0  0  0
    0.8025    0.4501    0.0000 C   0  0  0  0  0  0  0  0  0  0  0  0
    0.8146    1.3766    0.0000 C   0  0  0  0  0  0  0  0  0  0  0  0
    3.2026   -0.0419    0.0000 C   0  0  0  0  0  0  0  0  0  0  0  0
    3.1906   -0.9633    0.0000 C   0  0  0  0  0  0  0  0  0  0  0  0
    2.3879   -1.4240    0.0000 C   0  0  0  0  0  0  0  0  0  0  0  0
    1.5865   -0.9424    0.0000 C   0  0  0  0  0  0  0  0  0  0  0  0
    0.7783   -1.4030    0.0000 C   0  0  0  0  0  0  0  0  0  0  0  0
   -0.0120   -0.9214    0.0000 C   0  0  0  0  0  0  0  0  0  0  0  0
    0.0000    0.0000    0.0000 C   0  0  0  0  0  0  0  0  0  0  0  0
    2.3758   -2.3506    0.0000 C   0  0  0  0  0  0  0  0  0  0  0  0
    1.5734   -2.7956    0.0000 C   0  0  0  0  0  0  0  0  0  0  0  0
    0.7662   -2.3295    0.0000 C   0  0  0  0  0  0  0  0  0  0  0  0
   -0.8161   -1.3717    0.0000 C   0  0  0  0  0  0  0  0  0  0  0  0
   -1.6080   -0.9006    0.0000 C   0  0  0  0  0  0  0  0  0  0  0  0
   -1.5960    0.0209    0.0000 C   0  0  0  0  0  0  0  0  0  0  0  0
   -0.7920    0.4712    0.0000 C   0  0  0  0  0  0  0  0  0  0  0  0
    3.1634   -2.8214    0.0000 N   0  0  0  0  0  0  0  0  0  0  0  0
    3.3369   -3.7224    0.0000 O   0  0  0  0  0  0  0  0  0  0  0  0
    3.8569   -2.2206    0.0000 O   0  0  0  0  0  0  0  0  0  0  0  0
    1.6368    2.7566    0.0000 H   0  0  0  0  0  0  0  0  0  0  0  0
    3.2309    1.8074    0.0000 H   0  0  0  0  0  0  0  0  0  0  0  0
    0.0194    1.8482    0.0000 H   0  0  0  0  0  0  0  0  0  0  0  0
    4.0094    0.4096    0.0000 H   0  0  0  0  0  0  0  0  0  0  0  0
    3.9876   -1.4318    0.0000 H   0  0  0  0  0  0  0  0  0  0  0  0
    1.5654   -3.7201    0.0000 H   0  0  0  0  0  0  0  0  0  0  0  0
   -0.0375   -2.7866    0.0000 H   0  0  0  0  0  0  0  0  0  0  0  0
   -0.3186    1.2669    0.0000 H   0  0  0  0  0  0  0  0  0  0  0  0
   -1.2444    1.2790    0.0000 H   0  0  0  0  0  0  0  0  0  0  0  0
   -2.0484    0.8287    0.0000 H   0  0  0  0  0  0  0  0  0  0  0  0
   -2.5218    0.0330    0.0000 H   0  0  0  0  0  0  0  0  0  0  0  0
   -1.2895   -2.1675    0.0000 H   0  0  0  0  0  0  0  0  0  0  0  0
   -0.3636   -2.1796    0.0000 H   0  0  0  0  0  0  0  0  0  0  0  0
   -2.5339   -0.8885    0.0000 H   0  0  0  0  0  0  0  0  0  0  0  0
   -2.0814   -1.6963    0.0000 H   0  0  0  0  0  0  0  0  0  0  0  0
  1  2  2  0  0  0  0
  1 24  1  0  0  0  0
  2  3  1  0  0  0  0
  2 25  1  0  0  0  0
  3  4  2  0  0  0  0
  3  7  1  0  0  0  0
  4  5  1  0  0  0  0
  5  6  2  0  0  0  0
  6  1  1  0  0  0  0
  6 26  1  0  0  0  0
  7  8  2  0  0  0  0
  7 27  1  0  0  0  0
  8  9  1  0  0  0  0
  8 28  1  0  0  0  0
  9 10  2  0  0  0  0
  9 14  1  0  0  0  0
 10  4  1  0  0  0  0
 10 11  1  0  0  0  0
 11 12  1  0  0  0  0
 12 13  2  0  0  0  0
 12 17  1  0  0  0  0
 13  5  1  0  0  0  0
 14 15  2  0  0  0  0
 14 21  1  0  0  0  0
 15 16  1  0  0  0  0
 15 29  1  0  0  0  0
 16 11  2  0  0  0  0
 16 30  1  0  0  0  0
 17 18  1  0  0  0  0
 17 35  1  0  0  0  0
 17 36  1  0  0  0  0
 18 19  1  0  0  0  0
 18 37  1  0  0  0  0
 18 38  1  0  0  0  0
 19 20  1  0  0  0  0
 19 33  1  0  0  0  0
 19 34  1  0  0  0  0
 20 13  1  0  0  0  0
 20 31  1  0  0  0  0
 20 32  1  0  0  0  0
 21 22  2  0  0  0  0
 21 23  2  0  0  0  0
M  END
>  <activity>
Active

$$$$
mutag_d102
 OpenBabel01191712022D

 30 32  0  0  0  0  0  0  0  0999 V2000
   -3.3618    0.0007    0.0000 C   0  0  0  0  0  0  0  0  0  0  0  0
   -2.5215    0.4857    0.0000 C   0  0  0  0  0  0  0  0  0  0  0  0
   -1.6809    0.0003    0.0000 C   0  0  0  0  0  0  0  0  0  0  0  0
   -1.6811   -0.9705    0.0000 C   0  0  0  0  0  0  0  0  0  0  0  0
   -2.5219   -1.4554    0.0000 C   0  0  0  0  0  0  0  0  0  0  0  0
   -3.3619   -0.9701    0.0000 C   0  0  0  0  0  0  0  0  0  0  0  0
   -2.5213    1.5035    0.0000 H   0  0  0  0  0  0  0  0  0  0  0  0
   -4.2436   -1.4789    0.0000 H   0  0  0  0  0  0  0  0  0  0  0  0
    0.0000   -0.0000    0.0000 C   0  0  0  0  0  0  0  0  0  0  0  0
    0.8408    0.4850    0.0000 C   0  0  0  0  0  0  0  0  0  0  0  0
    1.6809   -0.0003    0.0000 C   0  0  0  0  0  0  0  0  0  0  0  0
    1.6807   -0.9711    0.0000 C   0  0  0  0  0  0  0  0  0  0  0  0
    0.8404   -1.4561    0.0000 C   0  0  0  0  0  0  0  0  0  0  0  0
   -0.0002   -0.9708    0.0000 C   0  0  0  0  0  0  0  0  0  0  0  0
    0.8411    1.5029    0.0000 H   0  0  0  0  0  0  0  0  0  0  0  0
    2.5621   -1.4802    0.0000 H   0  0  0  0  0  0  0  0  0  0  0  0
   -0.8406    0.4853    0.0000 C   0  0  0  0  0  0  0  0  0  0  0  0
   -0.8405    1.5032    0.0000 O   0  0  0  0  0  0  0  0  0  0  0  0
    2.5212    0.4846    0.0000 N   0  0  0  0  0  0  0  0  0  0  0  0
    0.8403   -2.4263    0.0000 N   0  0  0  0  0  0  0  0  0  0  0  0
   -2.5222   -2.4256    0.0000 N   0  0  0  0  0  0  0  0  0  0  0  0
   -4.2019    0.4859    0.0000 N   0  0  0  0  0  0  0  0  0  0  0  0
   -4.3031    1.4508    0.0000 O   0  0  0  0  0  0  0  0  0  0  0  0
   -4.9869   -0.0842    0.0000 O   0  0  0  0  0  0  0  0  0  0  0  0
   -3.4871   -2.5267    0.0000 O   0  0  0  0  0  0  0  0  0  0  0  0
   -1.9522   -3.2107    0.0000 O   0  0  0  0  0  0  0  0  0  0  0  0
   -0.1087   -2.6280    0.0000 O   0  0  0  0  0  0  0  0  0  0  0  0
    1.4895   -3.1474    0.0000 O   0  0  0  0  0  0  0  0  0  0  0  0
    3.4438    0.1846    0.0000 O   0  0  0  0  0  0  0  0  0  0  0  0
    2.3197    1.4336    0.0000 O   0  0  0  0  0  0  0  0  0  0  0  0
  1  2  2  0  0  0  0
  1 22  1  0  0  0  0
  2  3  1  0  0  0  0
  2  7  1  0  0  0  0
  3  4  2  0  0  0  0
  3 17  1  0  0  0  0
  4  5  1  0  0  0  0
  4 14  1  0  0  0  0
  5  6  2  0  0  0  0
  5 21  1  0  0  0  0
  6  1  1  0  0  0  0
  6  8  1  0  0  0  0
  9 10  2  0  0  0  0
 10 11  1  0  0  0  0
 10 15  1  0  0  0  0
 11 12  2  0  0  0  0
 11 19  1  0  0  0  0
 12 13  1  0  0  0  0
 12 16  1  0  0  0  0
 13 14  2  0  0  0  0
 13 20  1  0  0  0  0
 14  9  1  0  0  0  0
 17  9  1  0  0  0  0
 17 18  2  0  0  0  0
 19 29  2  0  0  0  0
 19 30  2  0  0  0  0
 20 27  2  0  0  0  0
 20 28  2  0  0  0  0
 21 25  2  0  0  0  0
 21 26  2  0  0  0  0
 22 23  2  0  0  0  0
 22 24  2  0  0  0  0
M  END
>  <activity>
Active

$$$$
mutag_d103
 OpenBabel01191712022D

 28 31  0  0  0  0  0  0  0  0999 V2000
    3.2526    0.9136    0.0000 C   0  0  0  0  0  0  0  0  0  0  0  0
    3.2457   -0.0286    0.0000 C   0  0  0  0  0  0  0  0  0  0  0  0
    2.4314   -0.4907    0.0000 C   0  0  0  0  0  0  0  0  0  0  0  0
    1.6239   -0.0105    0.0000 C   0  0  0  0  0  0  0  0  0  0  0  0
    1.6287    0.9241    0.0000 C   0  0  0  0  0  0  0  0  0  0  0  0
    2.4431    1.3861    0.0000 C   0  0  0  0  0  0  0  0  0  0  0  0
    4.0663    1.3753    0.0000 H   0  0  0  0  0  0  0  0  0  0  0  0
    4.0525   -0.5024    0.0000 H   0  0  0  0  0  0  0  0  0  0  0  0
    2.4488    2.3217    0.0000 H   0  0  0  0  0  0  0  0  0  0  0  0
    2.4238   -1.4204    0.0000 C   0  0  0  0  0  0  0  0  0  0  0  0
    1.6140   -1.8799    0.0000 C   0  0  0  0  0  0  0  0  0  0  0  0
    0.8027   -1.4147    0.0000 C   0  0  0  0  0  0  0  0  0  0  0  0
    0.8140   -0.4700    0.0000 C   0  0  0  0  0  0  0  0  0  0  0  0
    3.2304   -1.8945    0.0000 H   0  0  0  0  0  0  0  0  0  0  0  0
    1.6119   -2.8154    0.0000 H   0  0  0  0  0  0  0  0  0  0  0  0
    0.0000   -0.0000    0.0000 C   0  0  0  0  0  0  0  0  0  0  0  0
    0.0169    0.9350    0.0000 C   0  0  0  0  0  0  0  0  0  0  0  0
    0.8268    1.3945    0.0000 C   0  0  0  0  0  0  0  0  0  0  0  0
   -0.7873    1.4131    0.0000 H   0  0  0  0  0  0  0  0  0  0  0  0
    0.8335    2.3300    0.0000 H   0  0  0  0  0  0  0  0  0  0  0  0
   -0.0117   -1.8768    0.0000 C   0  0  0  0  0  0  0  0  0  0  0  0
   -0.8091   -1.4038    0.0000 C   0  0  0  0  0  0  0  0  0  0  0  0
   -0.8144   -0.4620    0.0000 C   0  0  0  0  0  0  0  0  0  0  0  0
   -0.0184   -2.8123    0.0000 H   0  0  0  0  0  0  0  0  0  0  0  0
   -1.6241    0.0065    0.0000 H   0  0  0  0  0  0  0  0  0  0  0  0
   -1.6135   -1.8649    0.0000 N   0  0  0  0  0  0  0  0  0  0  0  0
   -2.5270   -1.7065    0.0000 O   0  0  0  0  0  0  0  0  0  0  0  0
   -1.2939   -2.7353    0.0000 O   0  0  0  0  0  0  0  0  0  0  0  0
  1  2  2  0  0  0  0
  1  7  1  0  0  0  0
  2  3  1  0  0  0  0
  2  8  1  0  0  0  0
  3  4  2  0  0  0  0
  3 10  1  0  0  0  0
  4  5  1  0  0  0  0
  5  6  2  0  0  0  0
  6  1  1  0  0  0  0
  6  9  1  0  0  0  0
 10 11  2  0  0  0  0
 10 14  1  0  0  0  0
 11 12  1  0  0  0  0
 11 15  1  0  0  0  0
 12 13  2  0  0  0  0
 12 21  1  0  0  0  0
 13  4  1  0  0  0  0
 13 16  1  0  0  0  0
 16 17  1  0  0  0  0
 17 18  2  0  0  0  0
 17 19  1  0  0  0  0
 18  5  1  0  0  0  0
 18 20  1  0  0  0  0
 21 22  2  0  0  0  0
 21 24  1  0  0  0  0
 22 23  1  0  0  0  0
 22 26  1  0  0  0  0
 23 16  2  0  0  0  0
 23 25  1  0  0  0  0
 26 27  2  0  0  0  0
 26 28  2  0  0  0  0
M  END
>  <activity>
Active

$$$$
mutag_d104
 OpenBabel01191712022D

 38 42  0  0  0  0  0  0  0  0999 V2000
    1.6214    1.8306    0.0000 C   0  0  0  0  0  0  0  0  0  0  0  0
    2.4222    1.3544    0.0000 C   0  0  0  0  0  0  0  0  0  0  0  0
    2.4101    0.4287    0.0000 C   0  0  0  0  0  0  0  0  0  0  0  0
    1.5972   -0.0209    0.0000 C   0  0  0  0  0  0  0  0  0  0  0  0
    0.8018    0.4497    0.0000 C   0  0  0  0  0  0  0  0  0  0  0  0
    0.8139    1.3755    0.0000 C   0  0  0  0  0  0  0  0  0  0  0  0
    3.1999   -0.0418    0.0000 C   0  0  0  0  0  0  0  0  0  0  0  0
    3.1879   -0.9625    0.0000 C   0  0  0  0  0  0  0  0  0  0  0  0
    2.3859   -1.4229    0.0000 C   0  0  0  0  0  0  0  0  0  0  0  0
    1.5852   -0.9416    0.0000 C   0  0  0  0  0  0  0  0  0  0  0  0
    0.7776   -1.4018    0.0000 C   0  0  0  0  0  0  0  0  0  0  0  0
   -0.0120   -0.9207    0.0000 C   0  0  0  0  0  0  0  0  0  0  0  0
    0.0000    0.0000    0.0000 C   0  0  0  0  0  0  0  0  0  0  0  0
    2.3738   -2.3486    0.0000 C   0  0  0  0  0  0  0  0  0  0  0  0
    1.5720   -2.7932    0.0000 C   0  0  0  0  0  0  0  0  0  0  0  0
    0.7655   -2.3276    0.0000 C   0  0  0  0  0  0  0  0  0  0  0  0
   -0.8154   -1.3706    0.0000 C   0  0  0  0  0  0  0  0  0  0  0  0
   -1.6067   -0.8998    0.0000 C   0  0  0  0  0  0  0  0  0  0  0  0
   -1.5947    0.0209    0.0000 C   0  0  0  0  0  0  0  0  0  0  0  0
   -0.7913    0.4708    0.0000 C   0  0  0  0  0  0  0  0  0  0  0  0
   -0.0393   -2.7853    0.0000 N   0  0  0  0  0  0  0  0  0  0  0  0
   -0.9648   -2.7616    0.0000 O   0  0  0  0  0  0  0  0  0  0  0  0
    0.4030   -3.5986    0.0000 O   0  0  0  0  0  0  0  0  0  0  0  0
    1.6275    2.7552    0.0000 H   0  0  0  0  0  0  0  0  0  0  0  0
    3.2289    1.8063    0.0000 H   0  0  0  0  0  0  0  0  0  0  0  0
    0.0187    1.8471    0.0000 H   0  0  0  0  0  0  0  0  0  0  0  0
    4.0067    0.4097    0.0000 H   0  0  0  0  0  0  0  0  0  0  0  0
    3.9850   -1.4310    0.0000 H   0  0  0  0  0  0  0  0  0  0  0  0
    3.1709   -2.8171    0.0000 H   0  0  0  0  0  0  0  0  0  0  0  0
    1.5641   -3.7178    0.0000 H   0  0  0  0  0  0  0  0  0  0  0  0
   -0.3183    1.2658    0.0000 H   0  0  0  0  0  0  0  0  0  0  0  0
   -1.2434    1.2779    0.0000 H   0  0  0  0  0  0  0  0  0  0  0  0
   -2.0467    0.8280    0.0000 H   0  0  0  0  0  0  0  0  0  0  0  0
   -2.5197    0.0329    0.0000 H   0  0  0  0  0  0  0  0  0  0  0  0
   -1.2884   -2.1656    0.0000 H   0  0  0  0  0  0  0  0  0  0  0  0
   -0.3633   -2.1777    0.0000 H   0  0  0  0  0  0  0  0  0  0  0  0
   -2.5317   -0.8877    0.0000 H   0  0  0  0  0  0  0  0  0  0  0  0
   -2.0797   -1.6949    0.0000 H   0  0  0  0  0  0  0  0  0  0  0  0
  1  2  2  0  0  0  0
  1 24  1  0  0  0  0
  2  3  1  0  0  0  0
  2 25  1  0  0  0  0
  3  4  2  0  0  0  0
  3  7  1  0  0  0  0
  4  5  1  0  0  0  0
  5  6  2  0  0  0  0
  6  1  1  0  0  0  0
  6 26  1  0  0  0  0
  7  8  2  0  0  0  0
  7 27  1  0  0  0  0
  8  9  1  0  0  0  0
  8 28  1  0  0  0  0
  9 10  2  0  0  0  0
  9 14  1  0  0  0  0
 10  4  1  0  0  0  0
 10 11  1  0  0  0  0
 11 12  1  0  0  0  0
 12 13  2  0  0  0  0
 12 17  1  0  0  0  0
 13  5  1  0  0  0  0
 14 15  2  0  0  0  0
 14 29  1  0  0  0  0
 15 16  1  0  0  0  0
 15 30  1  0  0  0  0
 16 11  2  0  0  0  0
 16 21  1  0  0  0  0
 17 18  1  0  0  0  0
 17 35  1  0  0  0  0
 17 36  1  0  0  0  0
 18 19  1  0  0  0  0
 18 37  1  0  0  0  0
 18 38  1  0  0  0  0
 19 20  1  0  0  0  0
 19 33  1  0  0  0  0
 19 34  1  0  0  0  0
 20 13  1  0  0  0  0
 20 31  1  0  0  0  0
 20 32  1  0  0  0  0
 21 22  2  0  0  0  0
 21 23  2  0  0  0  0
M  END
>  <activity>
Active

$$$$
mutag_d105
 OpenBabel01191712022D

 24 26  0  0  0  0  0  0  0  0999 V2000
    3.3358    0.9630    0.0000 C   0  0  0  0  0  0  0  0  0  0  0  0
    3.3358   -0.0000    0.0000 C   0  0  0  0  0  0  0  0  0  0  0  0
    2.5019   -0.4815    0.0000 C   0  0  0  0  0  0  0  0  0  0  0  0
    1.6679   -0.0000    0.0000 C   0  0  0  0  0  0  0  0  0  0  0  0
    1.6679    0.9630    0.0000 C   0  0  0  0  0  0  0  0  0  0  0  0
    2.5019    1.4444    0.0000 C   0  0  0  0  0  0  0  0  0  0  0  0
    4.1698    1.4444    0.0000 H   0  0  0  0  0  0  0  0  0  0  0  0
    4.1698   -0.4815    0.0000 H   0  0  0  0  0  0  0  0  0  0  0  0
    2.5019    2.4074    0.0000 H   0  0  0  0  0  0  0  0  0  0  0  0
    0.8340   -0.4815    0.0000 C   0  0  0  0  0  0  0  0  0  0  0  0
    0.0000   -0.0000    0.0000 C   0  0  0  0  0  0  0  0  0  0  0  0
   -0.0000    0.9630    0.0000 N   0  0  0  0  0  0  0  0  0  0  0  0
    0.8340    1.4444    0.0000 C   0  0  0  0  0  0  0  0  0  0  0  0
    0.8340    2.4074    0.0000 H   0  0  0  0  0  0  0  0  0  0  0  0
    0.8340   -1.4444    0.0000 C   0  0  0  0  0  0  0  0  0  0  0  0
   -0.0000   -1.9259    0.0000 C   0  0  0  0  0  0  0  0  0  0  0  0
   -0.8340   -1.4444    0.0000 C   0  0  0  0  0  0  0  0  0  0  0  0
   -0.8340   -0.4815    0.0000 N   0  0  0  0  0  0  0  0  0  0  0  0
    1.6679   -1.9259    0.0000 H   0  0  0  0  0  0  0  0  0  0  0  0
   -0.0000   -2.8889    0.0000 H   0  0  0  0  0  0  0  0  0  0  0  0
   -1.6679   -1.9259    0.0000 H   0  0  0  0  0  0  0  0  0  0  0  0
    2.5019   -2.4074    0.0000 N   0  0  0  0  0  0  0  0  0  0  0  0
    1.6679   -2.8889    0.0000 O   0  0  0  0  0  0  0  0  0  0  0  0
    3.3358   -2.8889    0.0000 O   0  0  0  0  0  0  0  0  0  0  0  0
  1  2  2  0  0  0  0
  1  7  1  0  0  0  0
  2  3  1  0  0  0  0
  2  8  1  0  0  0  0
  3  4  2  0  0  0  0
  3 22  1  0  0  0  0
  4  5  1  0  0  0  0
  4 10  1  0  0  0  0
  5  6  2  0  0  0  0
  6  1  1  0  0  0  0
  6  9  1  0  0  0  0
 10 11  2  0  0  0  0
 10 15  1  0  0  0  0
 11 12  1  0  0  0  0
 12 13  2  0  0  0  0
 13  5  1  0  0  0  0
 13 14  1  0  0  0  0
 15 16  2  0  0  0  0
 15 19  1  0  0  0  0
 16 17  1  0  0  0  0
 16 20  1  0  0  0  0
 17 18  2  0  0  0  0
 17 21  1  0  0  0  0
 18 11  1  0  0  0  0
 22 23  2  0  0  0  0
 22 24  2  0  0  0  0
M  END
>  <activity>
Active

$$$$
mutag_d106
 OpenBabel01191712022D

 29 32  0  0  0  0  0  0  0  0999 V2000
    3.2576    0.9150    0.0000 C   0  0  0  0  0  0  0  0  0  0  0  0
    3.2507   -0.0287    0.0000 C   0  0  0  0  0  0  0  0  0  0  0  0
    2.4351   -0.4914    0.0000 C   0  0  0  0  0  0  0  0  0  0  0  0
    1.6264   -0.0105    0.0000 C   0  0  0  0  0  0  0  0  0  0  0  0
    1.6312    0.9255    0.0000 C   0  0  0  0  0  0  0  0  0  0  0  0
    2.4468    1.3882    0.0000 C   0  0  0  0  0  0  0  0  0  0  0  0
    4.0726    1.3774    0.0000 H   0  0  0  0  0  0  0  0  0  0  0  0
    4.0587   -0.5032    0.0000 H   0  0  0  0  0  0  0  0  0  0  0  0
    2.4525    2.3252    0.0000 H   0  0  0  0  0  0  0  0  0  0  0  0
    2.4275   -1.4225    0.0000 C   0  0  0  0  0  0  0  0  0  0  0  0
    1.6164   -1.8827    0.0000 C   0  0  0  0  0  0  0  0  0  0  0  0
    0.8039   -1.4169    0.0000 C   0  0  0  0  0  0  0  0  0  0  0  0
    0.8153   -0.4707    0.0000 C   0  0  0  0  0  0  0  0  0  0  0  0
    3.2353   -1.8974    0.0000 H   0  0  0  0  0  0  0  0  0  0  0  0
    1.6143   -2.8197    0.0000 H   0  0  0  0  0  0  0  0  0  0  0  0
    0.0000   -0.0000    0.0000 C   0  0  0  0  0  0  0  0  0  0  0  0
    0.0169    0.9364    0.0000 C   0  0  0  0  0  0  0  0  0  0  0  0
    0.8280    1.3966    0.0000 C   0  0  0  0  0  0  0  0  0  0  0  0
    0.8301    2.3336    0.0000 H   0  0  0  0  0  0  0  0  0  0  0  0
   -0.0117   -1.8797    0.0000 C   0  0  0  0  0  0  0  0  0  0  0  0
   -0.8104   -1.4060    0.0000 C   0  0  0  0  0  0  0  0  0  0  0  0
   -0.8156   -0.4627    0.0000 C   0  0  0  0  0  0  0  0  0  0  0  0
   -0.0138   -2.8167    0.0000 H   0  0  0  0  0  0  0  0  0  0  0  0
   -1.6233   -1.8720    0.0000 H   0  0  0  0  0  0  0  0  0  0  0  0
   -1.6272    0.0069    0.0000 N   0  0  0  0  0  0  0  0  0  0  0  0
   -0.7847    1.4130    0.0000 O   0  0  0  0  0  0  0  0  0  0  0  0
   -2.0798    0.8282    0.0000 O   0  0  0  0  0  0  0  0  0  0  0  0
   -2.1122   -0.7956    0.0000 O   0  0  0  0  0  0  0  0  0  0  0  0
   -1.5982    0.9571    0.0000 H   0  0  0  0  0  0  0  0  0  0  0  0
  1  2  2  0  0  0  0
  1  7  1  0  0  0  0
  2  3  1  0  0  0  0
  2  8  1  0  0  0  0
  3  4  2  0  0  0  0
  3 10  1  0  0  0  0
  4  5  1  0  0  0  0
  5  6  2  0  0  0  0
  6  1  1  0  0  0  0
  6  9  1  0  0  0  0
 10 11  2  0  0  0  0
 10 14  1  0  0  0  0
 11 12  1  0  0  0  0
 11 15  1  0  0  0  0
 12 13  2  0  0  0  0
 12 20  1  0  0  0  0
 13  4  1  0  0  0  0
 13 16  1  0  0  0  0
 16 17  1  0  0  0  0
 17 18  2  0  0  0  0
 17 26  1  0  0  0  0
 18  5  1  0  0  0  0
 18 19  1  0  0  0  0
 20 21  2  0  0  0  0
 20 23  1  0  0  0  0
 21 22  1  0  0  0  0
 21 24  1  0  0  0  0
 22 16  2  0  0  0  0
 22 25  1  0  0  0  0
 25 27  2  0  0  0  0
 25 28  2  0  0  0  0
 26 29  1  0  0  0  0
M  END
>  <activity>
Active

$$$$
mutag_d107
 OpenBabel01191712022D

 32 35  0  0  0  0  0  0  0  0999 V2000
   -0.0006   -2.8544    0.0000 C   0  0  0  0  0  0  0  0  0  0  0  0
   -0.8247   -2.3786    0.0000 C   0  0  0  0  0  0  0  0  0  0  0  0
   -0.8245   -1.4273    0.0000 C   0  0  0  0  0  0  0  0  0  0  0  0
   -0.0002   -0.9518    0.0000 C   0  0  0  0  0  0  0  0  0  0  0  0
    0.8235   -1.4276    0.0000 C   0  0  0  0  0  0  0  0  0  0  0  0
    0.8233   -2.3789    0.0000 C   0  0  0  0  0  0  0  0  0  0  0  0
   -1.6805   -2.8726    0.0000 H   0  0  0  0  0  0  0  0  0  0  0  0
    1.6789   -2.8731    0.0000 H   0  0  0  0  0  0  0  0  0  0  0  0
   -1.6482   -0.9515    0.0000 C   0  0  0  0  0  0  0  0  0  0  0  0
   -1.6480    0.0003    0.0000 C   0  0  0  0  0  0  0  0  0  0  0  0
   -0.8241    0.4758    0.0000 C   0  0  0  0  0  0  0  0  0  0  0  0
   -0.0000   -0.0000    0.0000 C   0  0  0  0  0  0  0  0  0  0  0  0
   -0.8241    1.4640    0.0000 H   0  0  0  0  0  0  0  0  0  0  0  0
    1.6478   -0.9521    0.0000 C   0  0  0  0  0  0  0  0  0  0  0  0
    1.6480   -0.0003    0.0000 C   0  0  0  0  0  0  0  0  0  0  0  0
    2.4723    0.4752    0.0000 C   0  0  0  0  0  0  0  0  0  0  0  0
    3.2959   -0.0007    0.0000 C   0  0  0  0  0  0  0  0  0  0  0  0
    3.2957   -0.9525    0.0000 C   0  0  0  0  0  0  0  0  0  0  0  0
    2.4719   -1.4279    0.0000 C   0  0  0  0  0  0  0  0  0  0  0  0
    2.4724    1.4633    0.0000 H   0  0  0  0  0  0  0  0  0  0  0  0
    4.1518    0.4932    0.0000 H   0  0  0  0  0  0  0  0  0  0  0  0
    4.1514   -1.4467    0.0000 H   0  0  0  0  0  0  0  0  0  0  0  0
    2.4718   -2.4161    0.0000 H   0  0  0  0  0  0  0  0  0  0  0  0
   -2.4716    0.4761    0.0000 N   0  0  0  0  0  0  0  0  0  0  0  0
   -2.4720   -1.4269    0.0000 N   0  0  0  0  0  0  0  0  0  0  0  0
   -0.0006   -3.8056    0.0000 N   0  0  0  0  0  0  0  0  0  0  0  0
   -0.9466   -3.9050    0.0000 O   0  0  0  0  0  0  0  0  0  0  0  0
    0.5584   -4.5752    0.0000 O   0  0  0  0  0  0  0  0  0  0  0  0
   -3.4103   -1.2708    0.0000 O   0  0  0  0  0  0  0  0  0  0  0  0
   -2.1380   -2.3175    0.0000 O   0  0  0  0  0  0  0  0  0  0  0  0
   -2.6693    1.4065    0.0000 O   0  0  0  0  0  0  0  0  0  0  0  0
   -3.1786   -0.1603    0.0000 O   0  0  0  0  0  0  0  0  0  0  0  0
  1  2  2  0  0  0  0
  1 26  1  0  0  0  0
  2  3  1  0  0  0  0
  2  7  1  0  0  0  0
  3  4  2  0  0  0  0
  3  9  1  0  0  0  0
  4  5  1  0  0  0  0
  5  6  2  0  0  0  0
  6  1  1  0  0  0  0
  6  8  1  0  0  0  0
  9 10  2  0  0  0  0
  9 25  1  0  0  0  0
 10 11  1  0  0  0  0
 10 24  1  0  0  0  0
 11 12  2  0  0  0  0
 11 13  1  0  0  0  0
 12  4  1  0  0  0  0
 14 15  2  0  0  0  0
 14  5  1  0  0  0  0
 15 16  1  0  0  0  0
 15 12  1  0  0  0  0
 16 17  2  0  0  0  0
 16 20  1  0  0  0  0
 17 18  1  0  0  0  0
 17 21  1  0  0  0  0
 18 19  2  0  0  0  0
 18 22  1  0  0  0  0
 19 14  1  0  0  0  0
 19 23  1  0  0  0  0
 24 31  2  0  0  0  0
 24 32  2  0  0  0  0
 25 29  2  0  0  0  0
 25 30  2  0  0  0  0
 26 27  2  0  0  0  0
 26 28  2  0  0  0  0
M  END
>  <activity>
Active

$$$$
mutag_d108
 OpenBabel01191712022D

 28 31  0  0  0  0  0  0  0  0999 V2000
    0.0006    2.8299    0.0000 C   0  0  0  0  0  0  0  0  0  0  0  0
    0.8176    2.3582    0.0000 C   0  0  0  0  0  0  0  0  0  0  0  0
    0.8174    1.4151    0.0000 C   0  0  0  0  0  0  0  0  0  0  0  0
    0.0002    0.9436    0.0000 C   0  0  0  0  0  0  0  0  0  0  0  0
   -0.8164    1.4154    0.0000 C   0  0  0  0  0  0  0  0  0  0  0  0
   -0.8162    2.3585    0.0000 C   0  0  0  0  0  0  0  0  0  0  0  0
    1.6661    2.8480    0.0000 H   0  0  0  0  0  0  0  0  0  0  0  0
   -1.6645    2.8485    0.0000 H   0  0  0  0  0  0  0  0  0  0  0  0
    1.6340    0.9433    0.0000 C   0  0  0  0  0  0  0  0  0  0  0  0
    1.6338   -0.0003    0.0000 C   0  0  0  0  0  0  0  0  0  0  0  0
    0.8171   -0.4717    0.0000 C   0  0  0  0  0  0  0  0  0  0  0  0
   -0.0000   -0.0000    0.0000 C   0  0  0  0  0  0  0  0  0  0  0  0
    0.8170   -1.4514    0.0000 H   0  0  0  0  0  0  0  0  0  0  0  0
   -1.6337    0.9440    0.0000 C   0  0  0  0  0  0  0  0  0  0  0  0
   -1.6338    0.0003    0.0000 C   0  0  0  0  0  0  0  0  0  0  0  0
   -2.4511   -0.4711    0.0000 C   0  0  0  0  0  0  0  0  0  0  0  0
   -3.2677    0.0007    0.0000 C   0  0  0  0  0  0  0  0  0  0  0  0
   -3.2675    0.9443    0.0000 C   0  0  0  0  0  0  0  0  0  0  0  0
   -2.4507    1.4157    0.0000 C   0  0  0  0  0  0  0  0  0  0  0  0
   -2.4512   -1.4508    0.0000 H   0  0  0  0  0  0  0  0  0  0  0  0
   -4.1162   -0.4890    0.0000 H   0  0  0  0  0  0  0  0  0  0  0  0
   -4.1158    1.4343    0.0000 H   0  0  0  0  0  0  0  0  0  0  0  0
   -2.4507    2.3954    0.0000 H   0  0  0  0  0  0  0  0  0  0  0  0
    2.4508    1.4147    0.0000 N   0  0  0  0  0  0  0  0  0  0  0  0
    3.3811    1.2600    0.0000 O   0  0  0  0  0  0  0  0  0  0  0  0
    2.1197    2.2976    0.0000 O   0  0  0  0  0  0  0  0  0  0  0  0
    0.0006    3.8058    0.0000 H   0  0  0  0  0  0  0  0  0  0  0  0
    2.4789   -0.4884    0.0000 H   0  0  0  0  0  0  0  0  0  0  0  0
  1  2  2  0  0  0  0
  1 27  1  0  0  0  0
  2  3  1  0  0  0  0
  2  7  1  0  0  0  0
  3  4  2  0  0  0  0
  3  9  1  0  0  0  0
  4  5  1  0  0  0  0
  5  6  2  0  0  0  0
  6  1  1  0  0  0  0
  6  8  1  0  0  0  0
  9 10  2  0  0  0  0
  9 24  1  0  0  0  0
 10 11  1  0  0  0  0
 10 28  1  0  0  0  0
 11 12  2  0  0  0  0
 11 13  1  0  0  0  0
 12  4  1  0  0  0  0
 14 15  2  0  0  0  0
 14  5  1  0  0  0  0
 15 16  1  0  0  0  0
 15 12  1  0  0  0  0
 16 17  2  0  0  0  0
 16 20  1  0  0  0  0
 17 18  1  0  0  0  0
 17 21  1  0  0  0  0
 18 19  2  0  0  0  0
 18 22  1  0  0  0  0
 19 14  1  0  0  0  0
 19 23  1  0  0  0  0
 24 25  2  0  0  0  0
 24 26  2  0  0  0  0
M  END
>  <activity>
Active

$$$$
mutag_d109
 OpenBabel01191712022D

 38 43  0  0  0  0  0  0  0  0999 V2000
   -3.9105   -1.3564    0.0000 C   0  0  0  0  0  0  0  0  0  0  0  0
   -3.9109   -0.4531    0.0000 C   0  0  0  0  0  0  0  0  0  0  0  0
   -3.1288   -0.0011    0.0000 C   0  0  0  0  0  0  0  0  0  0  0  0
   -2.3463   -0.4524    0.0000 C   0  0  0  0  0  0  0  0  0  0  0  0
   -2.3459   -1.3557    0.0000 C   0  0  0  0  0  0  0  0  0  0  0  0
   -3.1280   -1.8077    0.0000 C   0  0  0  0  0  0  0  0  0  0  0  0
   -1.5642   -0.0005    0.0000 C   0  0  0  0  0  0  0  0  0  0  0  0
   -0.7821   -0.4520    0.0000 C   0  0  0  0  0  0  0  0  0  0  0  0
   -0.7813   -1.3551    0.0000 C   0  0  0  0  0  0  0  0  0  0  0  0
   -1.5634   -1.8070    0.0000 C   0  0  0  0  0  0  0  0  0  0  0  0
    0.0000   -0.0000    0.0000 C   0  0  0  0  0  0  0  0  0  0  0  0
    0.7825   -0.4513    0.0000 C   0  0  0  0  0  0  0  0  0  0  0  0
    0.7828   -1.3546    0.0000 C   0  0  0  0  0  0  0  0  0  0  0  0
    0.0007   -1.8066    0.0000 C   0  0  0  0  0  0  0  0  0  0  0  0
   -1.5631   -2.7103    0.0000 C   0  0  0  0  0  0  0  0  0  0  0  0
   -2.3452   -3.1623    0.0000 C   0  0  0  0  0  0  0  0  0  0  0  0
   -3.1277   -2.7110    0.0000 C   0  0  0  0  0  0  0  0  0  0  0  0
    0.0015   -2.7097    0.0000 C   0  0  0  0  0  0  0  0  0  0  0  0
   -0.7806   -3.1616    0.0000 C   0  0  0  0  0  0  0  0  0  0  0  0
   -1.5649    0.9026    0.0000 C   0  0  0  0  0  0  0  0  0  0  0  0
   -0.7828    1.3546    0.0000 C   0  0  0  0  0  0  0  0  0  0  0  0
   -0.0004    0.9033    0.0000 C   0  0  0  0  0  0  0  0  0  0  0  0
    0.7817    1.3553    0.0000 N   0  0  0  0  0  0  0  0  0  0  0  0
   -4.6926   -1.8084    0.0000 N   0  0  0  0  0  0  0  0  0  0  0  0
    1.6769    1.2346    0.0000 O   0  0  0  0  0  0  0  0  0  0  0  0
    0.4386    2.1909    0.0000 O   0  0  0  0  0  0  0  0  0  0  0  0
   -5.1446   -1.0263    0.0000 O   0  0  0  0  0  0  0  0  0  0  0  0
   -5.1439   -2.5909    0.0000 O   0  0  0  0  0  0  0  0  0  0  0  0
   -4.6933   -0.0018    0.0000 H   0  0  0  0  0  0  0  0  0  0  0  0
   -3.1291    0.9021    0.0000 H   0  0  0  0  0  0  0  0  0  0  0  0
    1.5645    0.0007    0.0000 H   0  0  0  0  0  0  0  0  0  0  0  0
    1.5653   -1.8059    0.0000 H   0  0  0  0  0  0  0  0  0  0  0  0
   -2.3448   -4.0656    0.0000 H   0  0  0  0  0  0  0  0  0  0  0  0
   -3.9097   -3.1630    0.0000 H   0  0  0  0  0  0  0  0  0  0  0  0
    0.7840   -3.1608    0.0000 H   0  0  0  0  0  0  0  0  0  0  0  0
   -0.7802   -4.0649    0.0000 H   0  0  0  0  0  0  0  0  0  0  0  0
   -2.3475    1.3538    0.0000 H   0  0  0  0  0  0  0  0  0  0  0  0
   -0.7832    2.2579    0.0000 H   0  0  0  0  0  0  0  0  0  0  0  0
  1  2  2  0  0  0  0
  1 24  1  0  0  0  0
  2  3  1  0  0  0  0
  2 29  1  0  0  0  0
  3  4  2  0  0  0  0
  3 30  1  0  0  0  0
  4  5  1  0  0  0  0
  4  7  1  0  0  0  0
  5  6  2  0  0  0  0
  6  1  1  0  0  0  0
  7  8  2  0  0  0  0
  7 20  1  0  0  0  0
  8  9  1  0  0  0  0
  8 11  1  0  0  0  0
  9 10  2  0  0  0  0
 10  5  1  0  0  0  0
 10 15  1  0  0  0  0
 11 12  1  0  0  0  0
 12 13  2  0  0  0  0
 12 31  1  0  0  0  0
 13 14  1  0  0  0  0
 13 32  1  0  0  0  0
 14  9  1  0  0  0  0
 14 18  2  0  0  0  0
 15 16  1  0  0  0  0
 16 17  2  0  0  0  0
 16 33  1  0  0  0  0
 17  6  1  0  0  0  0
 17 34  1  0  0  0  0
 18 19  1  0  0  0  0
 18 35  1  0  0  0  0
 19 15  2  0  0  0  0
 19 36  1  0  0  0  0
 20 21  2  0  0  0  0
 20 37  1  0  0  0  0
 21 22  1  0  0  0  0
 21 38  1  0  0  0  0
 22 11  2  0  0  0  0
 22 23  1  0  0  0  0
 23 25  2  0  0  0  0
 23 26  2  0  0  0  0
 24 27  2  0  0  0  0
 24 28  2  0  0  0  0
M  END
>  <activity>
Active

$$$$
mutag_d11
 OpenBabel01191712022D

 26 28  0  0  0  0  0  0  0  0999 V2000
   -3.4641   -1.0000    0.0000 C   0  0  0  0  0  0  0  0  0  0  0  0
   -3.4641    0.0000    0.0000 C   0  0  0  0  0  0  0  0  0  0  0  0
   -2.5981    0.5000    0.0000 C   0  0  0  0  0  0  0  0  0  0  0  0
   -1.7321   -0.0000    0.0000 C   0  0  0  0  0  0  0  0  0  0  0  0
   -1.7321   -1.0000    0.0000 C   0  0  0  0  0  0  0  0  0  0  0  0
   -2.5981   -1.5000    0.0000 C   0  0  0  0  0  0  0  0  0  0  0  0
   -4.3301   -1.5000    0.0000 H   0  0  0  0  0  0  0  0  0  0  0  0
   -4.3301    0.5000    0.0000 H   0  0  0  0  0  0  0  0  0  0  0  0
   -2.5981    1.5000    0.0000 H   0  0  0  0  0  0  0  0  0  0  0  0
   -2.5981   -2.5000    0.0000 H   0  0  0  0  0  0  0  0  0  0  0  0
   -0.8660    0.5000    0.0000 C   0  0  0  0  0  0  0  0  0  0  0  0
    0.0000    0.0000    0.0000 C   0  0  0  0  0  0  0  0  0  0  0  0
   -0.0000   -1.0000    0.0000 C   0  0  0  0  0  0  0  0  0  0  0  0
   -0.8660   -1.5000    0.0000 C   0  0  0  0  0  0  0  0  0  0  0  0
    0.8660   -1.5000    0.0000 H   0  0  0  0  0  0  0  0  0  0  0  0
   -0.8660    1.5000    0.0000 C   0  0  0  0  0  0  0  0  0  0  0  0
    0.0000    2.0000    0.0000 C   0  0  0  0  0  0  0  0  0  0  0  0
    0.8660    1.5000    0.0000 C   0  0  0  0  0  0  0  0  0  0  0  0
    0.8660    0.5000    0.0000 C   0  0  0  0  0  0  0  0  0  0  0  0
   -1.7321    2.0000    0.0000 H   0  0  0  0  0  0  0  0  0  0  0  0
    0.0000    3.0000    0.0000 H   0  0  0  0  0  0  0  0  0  0  0  0
    1.7321   -0.0000    0.0000 H   0  0  0  0  0  0  0  0  0  0  0  0
    1.7321    2.0000    0.0000 H   0  0  0  0  0  0  0  0  0  0  0  0
   -0.8660   -2.5000    0.0000 N   0  0  0  0  0  0  0  0  0  0  0  0
   -1.7321   -3.0000    0.0000 O   0  0  0  0  0  0  0  0  0  0  0  0
   -0.0000   -3.0000    0.0000 O   0  0  0  0  0  0  0  0  0  0  0  0
  1  2  2  0  0  0  0
  1  7  1  0  0  0  0
  2  3  1  0  0  0  0
  2  8  1  0  0  0  0
  3  4  2  0  0  0  0
  3  9  1  0  0  0  0
  4  5  1  0  0  0  0
  4 11  1  0  0  0  0
  5  6  2  0  0  0  0
  6  1  1  0  0  0  0
  6 10  1  0  0  0  0
 11 12  2  0  0  0  0
 11 16  1  0  0  0  0
 12 13  1  0  0  0  0
 13 14  2  0  0  0  0
 13 15  1  0  0  0  0
 14  5  1  0  0  0  0
 16 17  2  0  0  0  0
 16 20  1  0  0  0  0
 17 18  1  0  0  0  0
 17 21  1  0  0  0  0
 18 19  2  0  0  0  0
 18 23  1  0  0  0  0
 19 12  1  0  0  0  0
 19 22  1  0  0  0  0
 24 14  1  0  0  0  0
 25 24  2  0  0  0  0
 26 24  2  0  0  0  0
M  END
>  <activity>
Active

$$$$
mutag_d110
 OpenBabel01191712022D

 30 31  0  0  0  0  0  0  0  0999 V2000
    4.7377    2.7353    0.0000 C   0  0  0  0  0  0  0  0  0  0  0  0
    4.7377    1.8235    0.0000 C   0  0  0  0  0  0  0  0  0  0  0  0
    3.9481    1.3676    0.0000 C   0  0  0  0  0  0  0  0  0  0  0  0
    3.1584    1.8235    0.0000 C   0  0  0  0  0  0  0  0  0  0  0  0
    3.1584    2.7353    0.0000 C   0  0  0  0  0  0  0  0  0  0  0  0
    3.9481    3.1912    0.0000 C   0  0  0  0  0  0  0  0  0  0  0  0
    5.5273    3.1912    0.0000 H   0  0  0  0  0  0  0  0  0  0  0  0
    5.5273    1.3676    0.0000 H   0  0  0  0  0  0  0  0  0  0  0  0
    3.9481    4.1029    0.0000 H   0  0  0  0  0  0  0  0  0  0  0  0
    0.0000   -0.0000    0.0000 C   0  0  0  0  0  0  0  0  0  0  0  0
   -0.0000   -0.9118    0.0000 C   0  0  0  0  0  0  0  0  0  0  0  0
   -0.7896   -1.3676    0.0000 C   0  0  0  0  0  0  0  0  0  0  0  0
   -1.5792   -0.9118    0.0000 C   0  0  0  0  0  0  0  0  0  0  0  0
   -1.5792    0.0000    0.0000 C   0  0  0  0  0  0  0  0  0  0  0  0
   -0.7896    0.4559    0.0000 C   0  0  0  0  0  0  0  0  0  0  0  0
    0.7896   -1.3676    0.0000 H   0  0  0  0  0  0  0  0  0  0  0  0
   -0.7896   -2.2794    0.0000 H   0  0  0  0  0  0  0  0  0  0  0  0
   -2.3688    0.4559    0.0000 H   0  0  0  0  0  0  0  0  0  0  0  0
   -0.7896    1.3676    0.0000 N   0  0  0  0  0  0  0  0  0  0  0  0
   -2.3688   -1.3676    0.0000 N   0  0  0  0  0  0  0  0  0  0  0  0
    2.3688    3.1912    0.0000 N   0  0  0  0  0  0  0  0  0  0  0  0
    3.9481    0.4559    0.0000 N   0  0  0  0  0  0  0  0  0  0  0  0
    2.3688    4.1029    0.0000 O   0  0  0  0  0  0  0  0  0  0  0  0
    1.5792    2.7353    0.0000 O   0  0  0  0  0  0  0  0  0  0  0  0
   -0.0000    1.8235    0.0000 O   0  0  0  0  0  0  0  0  0  0  0  0
   -1.5792    1.8235    0.0000 O   0  0  0  0  0  0  0  0  0  0  0  0
   -3.1584   -0.9118    0.0000 O   0  0  0  0  0  0  0  0  0  0  0  0
   -2.3688   -2.2794    0.0000 O   0  0  0  0  0  0  0  0  0  0  0  0
    3.1584   -0.0000    0.0000 O   0  0  0  0  0  0  0  0  0  0  0  0
    4.7377   -0.0000    0.0000 O   0  0  0  0  0  0  0  0  0  0  0  0
  1  2  2  0  0  0  0
  1  7  1  0  0  0  0
  2  3  1  0  0  0  0
  2  8  1  0  0  0  0
  3  4  2  0  0  0  0
  3 22  1  0  0  0  0
  4  5  1  0  0  0  0
  4 10  1  0  0  0  0
  5  6  2  0  0  0  0
  5 21  1  0  0  0  0
  6  1  1  0  0  0  0
  6  9  1  0  0  0  0
 10 11  2  0  0  0  0
 11 12  1  0  0  0  0
 11 16  1  0  0  0  0
 12 13  2  0  0  0  0
 12 17  1  0  0  0  0
 13 14  1  0  0  0  0
 13 20  1  0  0  0  0
 14 15  2  0  0  0  0
 14 18  1  0  0  0  0
 15 10  1  0  0  0  0
 15 19  1  0  0  0  0
 19 25  2  0  0  0  0
 19 26  2  0  0  0  0
 20 27  2  0  0  0  0
 20 28  2  0  0  0  0
 21 23  2  0  0  0  0
 21 24  2  0  0  0  0
 22 29  2  0  0  0  0
 22 30  2  0  0  0  0
M  END
>  <activity>
Inactive

$$$$
mutag_d111
 OpenBabel01191712022D

 16 16  0  0  0  0  0  0  0  0999 V2000
    0.0000   -0.0000    0.0000 C   0  0  0  0  0  0  0  0  0  0  0  0
    0.8660   -0.5000    0.0000 C   0  0  0  0  0  0  0  0  0  0  0  0
    0.8660   -1.5000    0.0000 C   0  0  0  0  0  0  0  0  0  0  0  0
    0.0000   -2.0000    0.0000 C   0  0  0  0  0  0  0  0  0  0  0  0
   -0.8660   -1.5000    0.0000 C   0  0  0  0  0  0  0  0  0  0  0  0
   -0.8660   -0.5000    0.0000 C   0  0  0  0  0  0  0  0  0  0  0  0
    0.0000    1.0000    0.0000 H   0  0  0  0  0  0  0  0  0  0  0  0
    1.7321   -2.0000    0.0000 H   0  0  0  0  0  0  0  0  0  0  0  0
   -1.7321   -0.0000    0.0000 H   0  0  0  0  0  0  0  0  0  0  0  0
   -1.7321   -2.0000    0.0000 C   0  0  0  0  0  0  0  0  0  0  0  0
   -2.5981   -1.5000    0.0000 O   0  0  0  0  0  0  0  0  0  0  0  0
   -1.7321   -3.0000    0.0000 H   0  0  0  0  0  0  0  0  0  0  0  0
    0.0000   -3.0000    0.0000 H   0  0  0  0  0  0  0  0  0  0  0  0
    1.7321    0.0000    0.0000 N   0  0  0  0  0  0  0  0  0  0  0  0
    2.5981   -0.5000    0.0000 O   0  0  0  0  0  0  0  0  0  0  0  0
    1.7321    1.0000    0.0000 O   0  0  0  0  0  0  0  0  0  0  0  0
  1  2  2  0  0  0  0
  1  7  1  0  0  0  0
  2  3  1  0  0  0  0
  2 14  1  0  0  0  0
  3  4  2  0  0  0  0
  3  8  1  0  0  0  0
  4  5  1  0  0  0  0
  4 13  1  0  0  0  0
  5  6  2  0  0  0  0
  5 10  1  0  0  0  0
  6  1  1  0  0  0  0
  6  9  1  0  0  0  0
 10 11  2  0  0  0  0
 10 12  1  0  0  0  0
 14 15  2  0  0  0  0
 14 16  2  0  0  0  0
M  END
>  <activity>
Inactive

$$$$
mutag_d112
 OpenBabel01191712022D

 24 26  0  0  0  0  0  0  0  0999 V2000
   -2.4121    1.3922    0.0000 C   0  0  0  0  0  0  0  0  0  0  0  0
   -1.6082    1.8564    0.0000 C   0  0  0  0  0  0  0  0  0  0  0  0
   -0.8043    1.3925    0.0000 C   0  0  0  0  0  0  0  0  0  0  0  0
   -0.8042    0.4643    0.0000 C   0  0  0  0  0  0  0  0  0  0  0  0
   -1.6078   -0.0003    0.0000 C   0  0  0  0  0  0  0  0  0  0  0  0
   -2.4120    0.4640    0.0000 C   0  0  0  0  0  0  0  0  0  0  0  0
   -3.2582    1.8805    0.0000 H   0  0  0  0  0  0  0  0  0  0  0  0
   -1.6083    2.8333    0.0000 H   0  0  0  0  0  0  0  0  0  0  0  0
   -3.2579   -0.0245    0.0000 H   0  0  0  0  0  0  0  0  0  0  0  0
   -0.0003    1.8567    0.0000 C   0  0  0  0  0  0  0  0  0  0  0  0
    0.8038    1.3928    0.0000 C   0  0  0  0  0  0  0  0  0  0  0  0
    0.8040    0.4646    0.0000 C   0  0  0  0  0  0  0  0  0  0  0  0
    0.0000    0.0000    0.0000 C   0  0  0  0  0  0  0  0  0  0  0  0
   -0.0005    2.8336    0.0000 H   0  0  0  0  0  0  0  0  0  0  0  0
    1.6497    1.8814    0.0000 H   0  0  0  0  0  0  0  0  0  0  0  0
   -1.6076   -0.9285    0.0000 C   0  0  0  0  0  0  0  0  0  0  0  0
    0.0002   -0.9282    0.0000 C   0  0  0  0  0  0  0  0  0  0  0  0
   -2.2983   -1.6194    0.0000 H   0  0  0  0  0  0  0  0  0  0  0  0
   -2.5845   -0.9287    0.0000 H   0  0  0  0  0  0  0  0  0  0  0  0
    0.6911   -1.6188    0.0000 H   0  0  0  0  0  0  0  0  0  0  0  0
    0.9770   -0.9280    0.0000 H   0  0  0  0  0  0  0  0  0  0  0  0
    1.6080    0.0007    0.0000 N   0  0  0  0  0  0  0  0  0  0  0  0
    1.6637   -0.9258    0.0000 O   0  0  0  0  0  0  0  0  0  0  0  0
    2.3825    0.5123    0.0000 O   0  0  0  0  0  0  0  0  0  0  0  0
  1  2  2  0  0  0  0
  1  7  1  0  0  0  0
  2  3  1  0  0  0  0
  2  8  1  0  0  0  0
  3  4  2  0  0  0  0
  3 10  1  0  0  0  0
  4  5  1  0  0  0  0
  5  6  2  0  0  0  0
  5 16  1  0  0  0  0
  6  1  1  0  0  0  0
  6  9  1  0  0  0  0
 10 11  2  0  0  0  0
 10 14  1  0  0  0  0
 11 12  1  0  0  0  0
 11 15  1  0  0  0  0
 12 13  2  0  0  0  0
 12 22  1  0  0  0  0
 13  4  1  0  0  0  0
 16 17  1  0  0  0  0
 16 18  1  0  0  0  0
 16 19  1  0  0  0  0
 17 13  1  0  0  0  0
 17 20  1  0  0  0  0
 17 21  1  0  0  0  0
 22 23  2  0  0  0  0
 22 24  2  0  0  0  0
M  END
>  <activity>
Active

$$$$
mutag_d113
 OpenBabel01191712022D

 18 18  0  0  0  0  0  0  0  0999 V2000
   -0.0000   -0.0000    0.0000 C   0  0  0  0  0  0  0  0  0  0  0  0
   -0.8660    0.5000    0.0000 C   0  0  0  0  0  0  0  0  0  0  0  0
   -0.8660    1.5000    0.0000 C   0  0  0  0  0  0  0  0  0  0  0  0
   -0.0000    2.0000    0.0000 C   0  0  0  0  0  0  0  0  0  0  0  0
    0.8660    1.5000    0.0000 C   0  0  0  0  0  0  0  0  0  0  0  0
    0.8660    0.5000    0.0000 C   0  0  0  0  0  0  0  0  0  0  0  0
   -0.0000   -1.0000    0.0000 H   0  0  0  0  0  0  0  0  0  0  0  0
   -1.7321    2.0000    0.0000 H   0  0  0  0  0  0  0  0  0  0  0  0
    1.7321    0.0000    0.0000 H   0  0  0  0  0  0  0  0  0  0  0  0
    1.7321    2.0000    0.0000 N   0  0  0  0  0  0  0  0  0  0  0  0
   -0.0000    3.0000    0.0000 N   0  0  0  0  0  0  0  0  0  0  0  0
   -1.7321   -0.0000    0.0000 N   0  0  0  0  0  0  0  0  0  0  0  0
    0.8660    3.5000    0.0000 O   0  0  0  0  0  0  0  0  0  0  0  0
   -0.8660    3.5000    0.0000 O   0  0  0  0  0  0  0  0  0  0  0  0
   -2.5981    0.5000    0.0000 O   0  0  0  0  0  0  0  0  0  0  0  0
   -1.7321   -1.0000    0.0000 O   0  0  0  0  0  0  0  0  0  0  0  0
    2.5981    1.5000    0.0000 H   0  0  0  0  0  0  0  0  0  0  0  0
    1.7321    3.0000    0.0000 H   0  0  0  0  0  0  0  0  0  0  0  0
  1  2  2  0  0  0  0
  1  7  1  0  0  0  0
  2  3  1  0  0  0  0
  2 12  1  0  0  0  0
  3  4  2  0  0  0  0
  3  8  1  0  0  0  0
  4  5  1  0  0  0  0
  4 11  1  0  0  0  0
  5  6  2  0  0  0  0
  5 10  1  0  0  0  0
  6  1  1  0  0  0  0
  6  9  1  0  0  0  0
 10 17  1  0  0  0  0
 10 18  1  0  0  0  0
 11 13  2  0  0  0  0
 11 14  2  0  0  0  0
 12 15  2  0  0  0  0
 12 16  2  0  0  0  0
M  END
>  <activity>
Inactive

$$$$
mutag_d114
 OpenBabel01191712022D

 26 27  0  0  0  0  0  0  0  0999 V2000
    3.3404    1.9286    0.0000 C   0  0  0  0  0  0  0  0  0  0  0  0
    3.3404    0.9643    0.0000 C   0  0  0  0  0  0  0  0  0  0  0  0
    2.5053    0.4821    0.0000 C   0  0  0  0  0  0  0  0  0  0  0  0
    1.6702    0.9643    0.0000 C   0  0  0  0  0  0  0  0  0  0  0  0
    1.6702    1.9286    0.0000 C   0  0  0  0  0  0  0  0  0  0  0  0
    2.5053    2.4107    0.0000 C   0  0  0  0  0  0  0  0  0  0  0  0
    4.1755    0.4821    0.0000 H   0  0  0  0  0  0  0  0  0  0  0  0
    2.5053   -0.4821    0.0000 H   0  0  0  0  0  0  0  0  0  0  0  0
    0.8351    2.4107    0.0000 H   0  0  0  0  0  0  0  0  0  0  0  0
    2.5053    3.3750    0.0000 H   0  0  0  0  0  0  0  0  0  0  0  0
    0.0000   -0.0000    0.0000 C   0  0  0  0  0  0  0  0  0  0  0  0
   -0.0000   -0.9643    0.0000 C   0  0  0  0  0  0  0  0  0  0  0  0
   -0.8351   -1.4464    0.0000 C   0  0  0  0  0  0  0  0  0  0  0  0
   -1.6702   -0.9643    0.0000 C   0  0  0  0  0  0  0  0  0  0  0  0
   -1.6702    0.0000    0.0000 C   0  0  0  0  0  0  0  0  0  0  0  0
   -0.8351    0.4821    0.0000 C   0  0  0  0  0  0  0  0  0  0  0  0
    0.8351   -1.4464    0.0000 H   0  0  0  0  0  0  0  0  0  0  0  0
   -0.8351   -2.4107    0.0000 H   0  0  0  0  0  0  0  0  0  0  0  0
   -2.5053   -1.4464    0.0000 H   0  0  0  0  0  0  0  0  0  0  0  0
   -2.5053    0.4821    0.0000 H   0  0  0  0  0  0  0  0  0  0  0  0
   -0.8351    1.4464    0.0000 N   0  0  0  0  0  0  0  0  0  0  0  0
    4.1755    2.4107    0.0000 N   0  0  0  0  0  0  0  0  0  0  0  0
    5.0106    1.9286    0.0000 O   0  0  0  0  0  0  0  0  0  0  0  0
    4.1755    3.3750    0.0000 O   0  0  0  0  0  0  0  0  0  0  0  0
   -0.0000    1.9286    0.0000 H   0  0  0  0  0  0  0  0  0  0  0  0
   -1.6702    1.9286    0.0000 H   0  0  0  0  0  0  0  0  0  0  0  0
  1  2  2  0  0  0  0
  1 22  1  0  0  0  0
  2  3  1  0  0  0  0
  2  7  1  0  0  0  0
  3  4  2  0  0  0  0
  3  8  1  0  0  0  0
  4  5  1  0  0  0  0
  4 11  1  0  0  0  0
  5  6  2  0  0  0  0
  5  9  1  0  0  0  0
  6  1  1  0  0  0  0
  6 10  1  0  0  0  0
 11 12  2  0  0  0  0
 12 13  1  0  0  0  0
 12 17  1  0  0  0  0
 13 14  2  0  0  0  0
 13 18  1  0  0  0  0
 14 15  1  0  0  0  0
 14 19  1  0  0  0  0
 15 16  2  0  0  0  0
 15 20  1  0  0  0  0
 16 11  1  0  0  0  0
 16 21  1  0  0  0  0
 21 25  1  0  0  0  0
 21 26  1  0  0  0  0
 22 23  2  0  0  0  0
 22 24  2  0  0  0  0
M  END
>  <activity>
Inactive

$$$$
mutag_d115
 OpenBabel01191712022D

 19 20  0  0  0  0  0  0  0  0999 V2000
   -3.2709   -0.5000    0.0000 C   0  0  0  0  0  0  0  0  0  0  0  0
   -2.4049   -1.0000    0.0000 C   0  0  0  0  0  0  0  0  0  0  0  0
   -1.5388   -0.5000    0.0000 C   0  0  0  0  0  0  0  0  0  0  0  0
   -1.5388    0.5000    0.0000 C   0  0  0  0  0  0  0  0  0  0  0  0
   -2.4049    1.0000    0.0000 C   0  0  0  0  0  0  0  0  0  0  0  0
   -3.2709    0.5000    0.0000 C   0  0  0  0  0  0  0  0  0  0  0  0
   -4.1369   -1.0000    0.0000 H   0  0  0  0  0  0  0  0  0  0  0  0
   -2.4049   -2.0000    0.0000 H   0  0  0  0  0  0  0  0  0  0  0  0
   -2.4049    2.0000    0.0000 H   0  0  0  0  0  0  0  0  0  0  0  0
   -0.5878   -0.8090    0.0000 C   0  0  0  0  0  0  0  0  0  0  0  0
    0.0000    0.0000    0.0000 C   0  0  0  0  0  0  0  0  0  0  0  0
   -0.7957   -1.7872    0.0000 H   0  0  0  0  0  0  0  0  0  0  0  0
    0.1554   -1.4781    0.0000 H   0  0  0  0  0  0  0  0  0  0  0  0
   -0.5878    0.8090    0.0000 C   0  0  0  0  0  0  0  0  0  0  0  0
   -0.2788    1.7601    0.0000 H   0  0  0  0  0  0  0  0  0  0  0  0
    1.0000   -0.0000    0.0000 H   0  0  0  0  0  0  0  0  0  0  0  0
   -4.1369    1.0000    0.0000 N   0  0  0  0  0  0  0  0  0  0  0  0
   -4.1369    2.0000    0.0000 O   0  0  0  0  0  0  0  0  0  0  0  0
   -5.0029    0.5000    0.0000 O   0  0  0  0  0  0  0  0  0  0  0  0
  1  2  2  0  0  0  0
  1  7  1  0  0  0  0
  2  3  1  0  0  0  0
  2  8  1  0  0  0  0
  3  4  2  0  0  0  0
  3 10  1  0  0  0  0
  4  5  1  0  0  0  0
  4 14  1  0  0  0  0
  5  6  2  0  0  0  0
  5  9  1  0  0  0  0
  6  1  1  0  0  0  0
  6 17  1  0  0  0  0
 10 11  1  0  0  0  0
 10 12  1  0  0  0  0
 10 13  1  0  0  0  0
 11 16  1  0  0  0  0
 14 11  2  0  0  0  0
 14 15  1  0  0  0  0
 17 18  2  0  0  0  0
 17 19  2  0  0  0  0
M  END
>  <activity>
Active

$$$$
mutag_d116
 OpenBabel01191712022D

 14 14  0  0  0  0  0  0  0  0999 V2000
   -0.0000   -0.0000    0.0000 C   0  0  0  0  0  0  0  0  0  0  0  0
   -0.8660    0.5000    0.0000 C   0  0  0  0  0  0  0  0  0  0  0  0
   -0.8660    1.5000    0.0000 C   0  0  0  0  0  0  0  0  0  0  0  0
   -0.0000    2.0000    0.0000 C   0  0  0  0  0  0  0  0  0  0  0  0
    0.8660    1.5000    0.0000 C   0  0  0  0  0  0  0  0  0  0  0  0
    0.8660    0.5000    0.0000 C   0  0  0  0  0  0  0  0  0  0  0  0
   -0.0000   -1.0000    0.0000 H   0  0  0  0  0  0  0  0  0  0  0  0
   -1.7321    2.0000    0.0000 H   0  0  0  0  0  0  0  0  0  0  0  0
    0.0000    3.0000    0.0000 H   0  0  0  0  0  0  0  0  0  0  0  0
    1.7321    0.0000    0.0000 H   0  0  0  0  0  0  0  0  0  0  0  0
    1.7321    2.0000    0.0000 N   0  0  0  0  0  0  0  0  0  0  0  0
   -1.7321    0.0000    0.0000 F   0  0  0  0  0  0  0  0  0  0  0  0
    2.5981    1.5000    0.0000 O   0  0  0  0  0  0  0  0  0  0  0  0
    1.7321    3.0000    0.0000 O   0  0  0  0  0  0  0  0  0  0  0  0
  1  2  2  0  0  0  0
  1  7  1  0  0  0  0
  2  3  1  0  0  0  0
  2 12  1  0  0  0  0
  3  4  2  0  0  0  0
  3  8  1  0  0  0  0
  4  5  1  0  0  0  0
  4  9  1  0  0  0  0
  5  6  2  0  0  0  0
  5 11  1  0  0  0  0
  6  1  1  0  0  0  0
  6 10  1  0  0  0  0
 11 13  2  0  0  0  0
 11 14  2  0  0  0  0
M  END
>  <activity>
Inactive

$$$$
mutag_d117
 OpenBabel01191712022D

 28 29  0  0  0  0  0  0  0  0999 V2000
   -3.3486   -1.9333    0.0000 C   0  0  0  0  0  0  0  0  0  0  0  0
   -3.3486   -0.9667    0.0000 C   0  0  0  0  0  0  0  0  0  0  0  0
   -2.5115   -0.4833    0.0000 C   0  0  0  0  0  0  0  0  0  0  0  0
   -1.6743   -0.9667    0.0000 C   0  0  0  0  0  0  0  0  0  0  0  0
   -1.6743   -1.9333    0.0000 C   0  0  0  0  0  0  0  0  0  0  0  0
   -2.5115   -2.4167    0.0000 C   0  0  0  0  0  0  0  0  0  0  0  0
   -4.1858   -2.4167    0.0000 H   0  0  0  0  0  0  0  0  0  0  0  0
   -4.1858   -0.4833    0.0000 H   0  0  0  0  0  0  0  0  0  0  0  0
   -2.5115    0.4833    0.0000 H   0  0  0  0  0  0  0  0  0  0  0  0
   -0.8372   -2.4167    0.0000 H   0  0  0  0  0  0  0  0  0  0  0  0
    0.0000    0.0000    0.0000 C   0  0  0  0  0  0  0  0  0  0  0  0
    0.0000    0.9667    0.0000 C   0  0  0  0  0  0  0  0  0  0  0  0
    0.8372    1.4500    0.0000 C   0  0  0  0  0  0  0  0  0  0  0  0
    1.6743    0.9667    0.0000 C   0  0  0  0  0  0  0  0  0  0  0  0
    1.6743   -0.0000    0.0000 C   0  0  0  0  0  0  0  0  0  0  0  0
    0.8372   -0.4833    0.0000 C   0  0  0  0  0  0  0  0  0  0  0  0
   -0.8372    1.4500    0.0000 H   0  0  0  0  0  0  0  0  0  0  0  0
    0.8372    2.4167    0.0000 H   0  0  0  0  0  0  0  0  0  0  0  0
    2.5115   -0.4833    0.0000 H   0  0  0  0  0  0  0  0  0  0  0  0
    0.8372   -1.4500    0.0000 N   0  0  0  0  0  0  0  0  0  0  0  0
    2.5115    1.4500    0.0000 N   0  0  0  0  0  0  0  0  0  0  0  0
   -2.5115   -3.3833    0.0000 N   0  0  0  0  0  0  0  0  0  0  0  0
   -3.3486   -3.8667    0.0000 O   0  0  0  0  0  0  0  0  0  0  0  0
   -1.6743   -3.8667    0.0000 O   0  0  0  0  0  0  0  0  0  0  0  0
    0.0000   -1.9333    0.0000 O   0  0  0  0  0  0  0  0  0  0  0  0
    1.6743   -1.9333    0.0000 O   0  0  0  0  0  0  0  0  0  0  0  0
    3.3486    0.9667    0.0000 O   0  0  0  0  0  0  0  0  0  0  0  0
    2.5115    2.4167    0.0000 O   0  0  0  0  0  0  0  0  0  0  0  0
  1  2  2  0  0  0  0
  1  7  1  0  0  0  0
  2  3  1  0  0  0  0
  2  8  1  0  0  0  0
  3  4  2  0  0  0  0
  3  9  1  0  0  0  0
  4  5  1  0  0  0  0
  4 11  1  0  0  0  0
  5  6  2  0  0  0  0
  5 10  1  0  0  0  0
  6  1  1  0  0  0  0
  6 22  1  0  0  0  0
 11 12  2  0  0  0  0
 12 13  1  0  0  0  0
 12 17  1  0  0  0  0
 13 14  2  0  0  0  0
 13 18  1  0  0  0  0
 14 15  1  0  0  0  0
 14 21  1  0  0  0  0
 15 16  2  0  0  0  0
 15 19  1  0  0  0  0
 16 11  1  0  0  0  0
 16 20  1  0  0  0  0
 20 25  2  0  0  0  0
 20 26  2  0  0  0  0
 21 27  2  0  0  0  0
 21 28  2  0  0  0  0
 22 23  2  0  0  0  0
 22 24  2  0  0  0  0
M  END
>  <activity>
Active

$$$$
mutag_d118
 OpenBabel01191712022D

 38 42  0  0  0  0  0  0  0  0999 V2000
    4.1314   -2.3791    0.0000 C   0  0  0  0  0  0  0  0  0  0  0  0
    3.3064   -2.8585    0.0000 C   0  0  0  0  0  0  0  0  0  0  0  0
    2.4788   -2.3837    0.0000 C   0  0  0  0  0  0  0  0  0  0  0  0
    2.4761   -1.4296    0.0000 C   0  0  0  0  0  0  0  0  0  0  0  0
    3.3011   -0.9502    0.0000 C   0  0  0  0  0  0  0  0  0  0  0  0
    4.1288   -1.4250    0.0000 C   0  0  0  0  0  0  0  0  0  0  0  0
    1.6483   -2.8635    0.0000 C   0  0  0  0  0  0  0  0  0  0  0  0
    0.8229   -2.3869    0.0000 C   0  0  0  0  0  0  0  0  0  0  0  0
    0.8280   -1.4307    0.0000 C   0  0  0  0  0  0  0  0  0  0  0  0
    1.6507   -0.9531    0.0000 C   0  0  0  0  0  0  0  0  0  0  0  0
    0.0030   -2.8596    0.0000 C   0  0  0  0  0  0  0  0  0  0  0  0
   -0.8178   -2.3857    0.0000 C   0  0  0  0  0  0  0  0  0  0  0  0
   -0.8279   -1.4339    0.0000 C   0  0  0  0  0  0  0  0  0  0  0  0
    0.0072   -0.9568    0.0000 C   0  0  0  0  0  0  0  0  0  0  0  0
    0.0000   -0.0000    0.0000 C   0  0  0  0  0  0  0  0  0  0  0  0
    0.8293    0.4672    0.0000 C   0  0  0  0  0  0  0  0  0  0  0  0
    1.6502   -0.0067    0.0000 C   0  0  0  0  0  0  0  0  0  0  0  0
   -1.6532   -0.9574    0.0000 C   0  0  0  0  0  0  0  0  0  0  0  0
   -1.6493   -0.0136    0.0000 C   0  0  0  0  0  0  0  0  0  0  0  0
   -0.8254    0.4765    0.0000 C   0  0  0  0  0  0  0  0  0  0  0  0
   -2.4715   -1.4275    0.0000 N   0  0  0  0  0  0  0  0  0  0  0  0
   -3.3673   -1.1304    0.0000 O   0  0  0  0  0  0  0  0  0  0  0  0
   -2.2810   -2.3518    0.0000 O   0  0  0  0  0  0  0  0  0  0  0  0
    1.6463   -3.8153    0.0000 H   0  0  0  0  0  0  0  0  0  0  0  0
    0.0010   -3.8115    0.0000 H   0  0  0  0  0  0  0  0  0  0  0  0
   -1.6396   -2.8660    0.0000 H   0  0  0  0  0  0  0  0  0  0  0  0
    0.8344    1.4190    0.0000 H   0  0  0  0  0  0  0  0  0  0  0  0
    2.4743    0.4695    0.0000 H   0  0  0  0  0  0  0  0  0  0  0  0
   -2.4757    0.4586    0.0000 H   0  0  0  0  0  0  0  0  0  0  0  0
   -0.8316    1.4283    0.0000 H   0  0  0  0  0  0  0  0  0  0  0  0
    2.8326   -3.6846    0.0000 H   0  0  0  0  0  0  0  0  0  0  0  0
    3.7849   -3.6819    0.0000 H   0  0  0  0  0  0  0  0  0  0  0  0
    4.6099   -3.2025    0.0000 H   0  0  0  0  0  0  0  0  0  0  0  0
    5.0837   -2.3765    0.0000 H   0  0  0  0  0  0  0  0  0  0  0  0
    5.0811   -1.4223    0.0000 H   0  0  0  0  0  0  0  0  0  0  0  0
    4.6026   -0.5989    0.0000 H   0  0  0  0  0  0  0  0  0  0  0  0
    3.7750   -0.1241    0.0000 H   0  0  0  0  0  0  0  0  0  0  0  0
    2.8226   -0.1268    0.0000 H   0  0  0  0  0  0  0  0  0  0  0  0
  1  2  1  0  0  0  0
  1 33  1  0  0  0  0
  1 34  1  0  0  0  0
  2  3  1  0  0  0  0
  2 31  1  0  0  0  0
  2 32  1  0  0  0  0
  3  4  2  0  0  0  0
  3  7  1  0  0  0  0
  4  5  1  0  0  0  0
  5  6  1  0  0  0  0
  5 37  1  0  0  0  0
  5 38  1  0  0  0  0
  6  1  1  0  0  0  0
  6 35  1  0  0  0  0
  6 36  1  0  0  0  0
  7  8  2  0  0  0  0
  7 24  1  0  0  0  0
  8  9  1  0  0  0  0
  8 11  1  0  0  0  0
  9 10  2  0  0  0  0
 10  4  1  0  0  0  0
 11 12  2  0  0  0  0
 11 25  1  0  0  0  0
 12 13  1  0  0  0  0
 12 26  1  0  0  0  0
 13 14  2  0  0  0  0
 13 18  1  0  0  0  0
 14  9  1  0  0  0  0
 14 15  1  0  0  0  0
 15 16  1  0  0  0  0
 16 17  2  0  0  0  0
 16 27  1  0  0  0  0
 17 10  1  0  0  0  0
 17 28  1  0  0  0  0
 18 19  2  0  0  0  0
 18 21  1  0  0  0  0
 19 20  1  0  0  0  0
 19 29  1  0  0  0  0
 20 15  2  0  0  0  0
 20 30  1  0  0  0  0
 21 22  2  0  0  0  0
 21 23  2  0  0  0  0
M  END
>  <activity>
Active

$$$$
mutag_d119
 OpenBabel01191712022D

 28 29  0  0  0  0  0  0  0  0999 V2000
   -3.3486    1.9333    0.0000 C   0  0  0  0  0  0  0  0  0  0  0  0
   -2.5115    2.4167    0.0000 C   0  0  0  0  0  0  0  0  0  0  0  0
   -1.6743    1.9333    0.0000 C   0  0  0  0  0  0  0  0  0  0  0  0
   -1.6743    0.9667    0.0000 C   0  0  0  0  0  0  0  0  0  0  0  0
   -2.5115    0.4833    0.0000 C   0  0  0  0  0  0  0  0  0  0  0  0
   -3.3486    0.9667    0.0000 C   0  0  0  0  0  0  0  0  0  0  0  0
   -4.1858    2.4167    0.0000 H   0  0  0  0  0  0  0  0  0  0  0  0
   -2.5115    3.3833    0.0000 H   0  0  0  0  0  0  0  0  0  0  0  0
   -0.8372    2.4167    0.0000 H   0  0  0  0  0  0  0  0  0  0  0  0
   -4.1858    0.4833    0.0000 H   0  0  0  0  0  0  0  0  0  0  0  0
    0.0000    0.0000    0.0000 C   0  0  0  0  0  0  0  0  0  0  0  0
    0.0000   -0.9667    0.0000 C   0  0  0  0  0  0  0  0  0  0  0  0
    0.8372   -1.4500    0.0000 C   0  0  0  0  0  0  0  0  0  0  0  0
    1.6743   -0.9667    0.0000 C   0  0  0  0  0  0  0  0  0  0  0  0
    1.6743    0.0000    0.0000 C   0  0  0  0  0  0  0  0  0  0  0  0
    0.8372    0.4833    0.0000 C   0  0  0  0  0  0  0  0  0  0  0  0
   -0.8372   -1.4500    0.0000 H   0  0  0  0  0  0  0  0  0  0  0  0
    0.8372   -2.4167    0.0000 H   0  0  0  0  0  0  0  0  0  0  0  0
    2.5115    0.4833    0.0000 H   0  0  0  0  0  0  0  0  0  0  0  0
    0.8372    1.4500    0.0000 N   0  0  0  0  0  0  0  0  0  0  0  0
    2.5115   -1.4500    0.0000 N   0  0  0  0  0  0  0  0  0  0  0  0
   -2.5115   -0.4833    0.0000 N   0  0  0  0  0  0  0  0  0  0  0  0
   -3.3486   -0.9667    0.0000 O   0  0  0  0  0  0  0  0  0  0  0  0
   -1.6743   -0.9667    0.0000 O   0  0  0  0  0  0  0  0  0  0  0  0
    0.0000    1.9333    0.0000 O   0  0  0  0  0  0  0  0  0  0  0  0
    1.6743    1.9333    0.0000 O   0  0  0  0  0  0  0  0  0  0  0  0
    3.3486   -0.9667    0.0000 O   0  0  0  0  0  0  0  0  0  0  0  0
    2.5115   -2.4167    0.0000 O   0  0  0  0  0  0  0  0  0  0  0  0
  1  2  2  0  0  0  0
  1  7  1  0  0  0  0
  2  3  1  0  0  0  0
  2  8  1  0  0  0  0
  3  4  2  0  0  0  0
  3  9  1  0  0  0  0
  4  5  1  0  0  0  0
  4 11  1  0  0  0  0
  5  6  2  0  0  0  0
  5 22  1  0  0  0  0
  6  1  1  0  0  0  0
  6 10  1  0  0  0  0
 11 12  2  0  0  0  0
 12 13  1  0  0  0  0
 12 17  1  0  0  0  0
 13 14  2  0  0  0  0
 13 18  1  0  0  0  0
 14 15  1  0  0  0  0
 14 21  1  0  0  0  0
 15 16  2  0  0  0  0
 15 19  1  0  0  0  0
 16 11  1  0  0  0  0
 16 20  1  0  0  0  0
 20 25  2  0  0  0  0
 20 26  2  0  0  0  0
 21 27  2  0  0  0  0
 21 28  2  0  0  0  0
 22 23  2  0  0  0  0
 22 24  2  0  0  0  0
M  END
>  <activity>
Inactive

$$$$
mutag_d12
 OpenBabel01191712022D

 30 33  0  0  0  0  0  0  0  0999 V2000
    3.2631    0.9165    0.0000 C   0  0  0  0  0  0  0  0  0  0  0  0
    3.2562   -0.0287    0.0000 C   0  0  0  0  0  0  0  0  0  0  0  0
    2.4392   -0.4922    0.0000 C   0  0  0  0  0  0  0  0  0  0  0  0
    1.6291   -0.0105    0.0000 C   0  0  0  0  0  0  0  0  0  0  0  0
    1.6339    0.9270    0.0000 C   0  0  0  0  0  0  0  0  0  0  0  0
    2.4509    1.3906    0.0000 C   0  0  0  0  0  0  0  0  0  0  0  0
    4.0794    1.3797    0.0000 H   0  0  0  0  0  0  0  0  0  0  0  0
    4.0655   -0.5040    0.0000 H   0  0  0  0  0  0  0  0  0  0  0  0
    0.8167   -0.4715    0.0000 C   0  0  0  0  0  0  0  0  0  0  0  0
    0.0000   -0.0000    0.0000 C   0  0  0  0  0  0  0  0  0  0  0  0
    0.0170    0.9380    0.0000 C   0  0  0  0  0  0  0  0  0  0  0  0
    0.8294    1.3990    0.0000 C   0  0  0  0  0  0  0  0  0  0  0  0
   -0.7924    1.4133    0.0000 H   0  0  0  0  0  0  0  0  0  0  0  0
    0.8362    2.3375    0.0000 H   0  0  0  0  0  0  0  0  0  0  0  0
    2.4316   -1.4249    0.0000 C   0  0  0  0  0  0  0  0  0  0  0  0
    1.6191   -1.8859    0.0000 C   0  0  0  0  0  0  0  0  0  0  0  0
    0.8053   -1.4193    0.0000 C   0  0  0  0  0  0  0  0  0  0  0  0
    3.2408   -1.9005    0.0000 H   0  0  0  0  0  0  0  0  0  0  0  0
    1.6170   -2.8245    0.0000 H   0  0  0  0  0  0  0  0  0  0  0  0
   -0.0117   -1.8828    0.0000 C   0  0  0  0  0  0  0  0  0  0  0  0
   -0.8117   -1.4083    0.0000 C   0  0  0  0  0  0  0  0  0  0  0  0
   -0.8170   -0.4635    0.0000 C   0  0  0  0  0  0  0  0  0  0  0  0
   -0.0138   -2.8214    0.0000 H   0  0  0  0  0  0  0  0  0  0  0  0
   -1.6260   -1.8751    0.0000 H   0  0  0  0  0  0  0  0  0  0  0  0
    2.4567    2.3299    0.0000 N   0  0  0  0  0  0  0  0  0  0  0  0
    3.2730    2.7945    0.0000 O   0  0  0  0  0  0  0  0  0  0  0  0
    1.6461    2.8045    0.0000 O   0  0  0  0  0  0  0  0  0  0  0  0
   -1.6300    0.0069    0.0000 N   0  0  0  0  0  0  0  0  0  0  0  0
   -2.0833    0.8296    0.0000 H   0  0  0  0  0  0  0  0  0  0  0  0
   -2.1158   -0.7970    0.0000 H   0  0  0  0  0  0  0  0  0  0  0  0
  1  2  2  0  0  0  0
  1  7  1  0  0  0  0
  2  3  1  0  0  0  0
  2  8  1  0  0  0  0
  3  4  2  0  0  0  0
  3 15  1  0  0  0  0
  4  5  1  0  0  0  0
  4  9  1  0  0  0  0
  5  6  2  0  0  0  0
  6  1  1  0  0  0  0
  9 10  2  0  0  0  0
 10 11  1  0  0  0  0
 11 12  2  0  0  0  0
 11 13  1  0  0  0  0
 12  5  1  0  0  0  0
 12 14  1  0  0  0  0
 15 16  2  0  0  0  0
 15 18  1  0  0  0  0
 16 17  1  0  0  0  0
 16 19  1  0  0  0  0
 17  9  1  0  0  0  0
 17 20  2  0  0  0  0
 20 21  1  0  0  0  0
 20 23  1  0  0  0  0
 21 22  2  0  0  0  0
 21 24  1  0  0  0  0
 22 10  1  0  0  0  0
 22 28  1  0  0  0  0
 25  6  1  0  0  0  0
 26 25  2  0  0  0  0
 27 25  2  0  0  0  0
 28 29  1  0  0  0  0
 28 30  1  0  0  0  0
M  END
>  <activity>
Active

$$$$
mutag_d120
 OpenBabel01191712022D

 20 21  0  0  0  0  0  0  0  0999 V2000
    3.2709    0.5000    0.0000 C   0  0  0  0  0  0  0  0  0  0  0  0
    2.4049    1.0000    0.0000 C   0  0  0  0  0  0  0  0  0  0  0  0
    1.5388    0.5000    0.0000 C   0  0  0  0  0  0  0  0  0  0  0  0
    1.5388   -0.5000    0.0000 C   0  0  0  0  0  0  0  0  0  0  0  0
    2.4049   -1.0000    0.0000 C   0  0  0  0  0  0  0  0  0  0  0  0
    3.2709   -0.5000    0.0000 C   0  0  0  0  0  0  0  0  0  0  0  0
    0.5878    0.8090    0.0000 N   0  0  0  0  0  0  0  0  0  0  0  0
    0.0000   -0.0000    0.0000 N   0  0  0  0  0  0  0  0  0  0  0  0
    0.5878   -0.8090    0.0000 C   0  0  0  0  0  0  0  0  0  0  0  0
    0.2788    1.7601    0.0000 C   0  0  0  0  0  0  0  0  0  0  0  0
    4.1369   -1.0000    0.0000 N   0  0  0  0  0  0  0  0  0  0  0  0
    4.1369   -2.0000    0.0000 O   0  0  0  0  0  0  0  0  0  0  0  0
    5.0029   -0.5000    0.0000 O   0  0  0  0  0  0  0  0  0  0  0  0
    4.1369    1.0000    0.0000 H   0  0  0  0  0  0  0  0  0  0  0  0
    2.4049    2.0000    0.0000 H   0  0  0  0  0  0  0  0  0  0  0  0
    2.4049   -2.0000    0.0000 H   0  0  0  0  0  0  0  0  0  0  0  0
    0.2788   -1.7601    0.0000 H   0  0  0  0  0  0  0  0  0  0  0  0
   -0.4644    2.4292    0.0000 H   0  0  0  0  0  0  0  0  0  0  0  0
   -0.6723    1.4511    0.0000 H   0  0  0  0  0  0  0  0  0  0  0  0
    0.9479    2.5032    0.0000 H   0  0  0  0  0  0  0  0  0  0  0  0
  1  2  2  0  0  0  0
  1 14  1  0  0  0  0
  2  3  1  0  0  0  0
  2 15  1  0  0  0  0
  3  4  2  0  0  0  0
  3  7  1  0  0  0  0
  4  5  1  0  0  0  0
  4  9  1  0  0  0  0
  5  6  2  0  0  0  0
  5 16  1  0  0  0  0
  6  1  1  0  0  0  0
  6 11  1  0  0  0  0
  7  8  1  0  0  0  0
  7 10  1  0  0  0  0
  9  8  2  0  0  0  0
  9 17  1  0  0  0  0
 10 18  1  0  0  0  0
 10 19  1  0  0  0  0
 10 20  1  0  0  0  0
 11 12  2  0  0  0  0
 11 13  2  0  0  0  0
M  END
>  <activity>
Inactive

$$$$
mutag_d121
 OpenBabel01191712022D

 32 35  0  0  0  0  0  0  0  0999 V2000
   -0.0006   -2.8544    0.0000 C   0  0  0  0  0  0  0  0  0  0  0  0
   -0.8247   -2.3786    0.0000 C   0  0  0  0  0  0  0  0  0  0  0  0
   -0.8245   -1.4273    0.0000 C   0  0  0  0  0  0  0  0  0  0  0  0
   -0.0002   -0.9518    0.0000 C   0  0  0  0  0  0  0  0  0  0  0  0
    0.8235   -1.4276    0.0000 C   0  0  0  0  0  0  0  0  0  0  0  0
    0.8233   -2.3789    0.0000 C   0  0  0  0  0  0  0  0  0  0  0  0
   -1.6805   -2.8726    0.0000 H   0  0  0  0  0  0  0  0  0  0  0  0
    1.6789   -2.8731    0.0000 H   0  0  0  0  0  0  0  0  0  0  0  0
   -1.6482   -0.9515    0.0000 C   0  0  0  0  0  0  0  0  0  0  0  0
   -1.6480    0.0003    0.0000 C   0  0  0  0  0  0  0  0  0  0  0  0
   -0.8241    0.4758    0.0000 C   0  0  0  0  0  0  0  0  0  0  0  0
   -0.0000   -0.0000    0.0000 C   0  0  0  0  0  0  0  0  0  0  0  0
   -2.5040   -1.4453    0.0000 H   0  0  0  0  0  0  0  0  0  0  0  0
    1.6478   -0.9521    0.0000 C   0  0  0  0  0  0  0  0  0  0  0  0
    1.6480   -0.0003    0.0000 C   0  0  0  0  0  0  0  0  0  0  0  0
    2.4723    0.4752    0.0000 C   0  0  0  0  0  0  0  0  0  0  0  0
    3.2959   -0.0007    0.0000 C   0  0  0  0  0  0  0  0  0  0  0  0
    3.2957   -0.9525    0.0000 C   0  0  0  0  0  0  0  0  0  0  0  0
    2.4719   -1.4279    0.0000 C   0  0  0  0  0  0  0  0  0  0  0  0
    2.4726    1.4633    0.0000 H   0  0  0  0  0  0  0  0  0  0  0  0
    4.1518    0.4932    0.0000 H   0  0  0  0  0  0  0  0  0  0  0  0
    4.1514   -1.4467    0.0000 H   0  0  0  0  0  0  0  0  0  0  0  0
    2.4718   -2.4161    0.0000 H   0  0  0  0  0  0  0  0  0  0  0  0
   -0.8241    1.4270    0.0000 N   0  0  0  0  0  0  0  0  0  0  0  0
   -2.4717    0.4760    0.0000 N   0  0  0  0  0  0  0  0  0  0  0  0
   -0.0006   -3.8056    0.0000 N   0  0  0  0  0  0  0  0  0  0  0  0
   -0.0302    1.9510    0.0000 O   0  0  0  0  0  0  0  0  0  0  0  0
   -1.6748    1.8526    0.0000 O   0  0  0  0  0  0  0  0  0  0  0  0
   -2.6694    1.4064    0.0000 O   0  0  0  0  0  0  0  0  0  0  0  0
   -3.1786   -0.1604    0.0000 O   0  0  0  0  0  0  0  0  0  0  0  0
   -0.9466   -3.9050    0.0000 O   0  0  0  0  0  0  0  0  0  0  0  0
    0.5584   -4.5752    0.0000 O   0  0  0  0  0  0  0  0  0  0  0  0
  1  2  2  0  0  0  0
  1 26  1  0  0  0  0
  2  3  1  0  0  0  0
  2  7  1  0  0  0  0
  3  4  2  0  0  0  0
  3  9  1  0  0  0  0
  4  5  1  0  0  0  0
  5  6  2  0  0  0  0
  6  1  1  0  0  0  0
  6  8  1  0  0  0  0
  9 10  2  0  0  0  0
  9 13  1  0  0  0  0
 10 11  1  0  0  0  0
 10 25  1  0  0  0  0
 11 12  2  0  0  0  0
 11 24  1  0  0  0  0
 12  4  1  0  0  0  0
 14 15  2  0  0  0  0
 14  5  1  0  0  0  0
 15 16  1  0  0  0  0
 15 12  1  0  0  0  0
 16 17  2  0  0  0  0
 16 20  1  0  0  0  0
 17 18  1  0  0  0  0
 17 21  1  0  0  0  0
 18 19  2  0  0  0  0
 18 22  1  0  0  0  0
 19 14  1  0  0  0  0
 19 23  1  0  0  0  0
 24 27  2  0  0  0  0
 24 28  2  0  0  0  0
 25 29  2  0  0  0  0
 25 30  2  0  0  0  0
 26 31  2  0  0  0  0
 26 32  2  0  0  0  0
M  END
>  <activity>
Active

$$$$
mutag_d122
 OpenBabel01191712022D

 32 35  0  0  0  0  0  0  0  0999 V2000
    4.3301   -2.5000    0.0000 C   0  0  0  0  0  0  0  0  0  0  0  0
    3.4641   -3.0000    0.0000 C   0  0  0  0  0  0  0  0  0  0  0  0
    2.5981   -2.5000    0.0000 C   0  0  0  0  0  0  0  0  0  0  0  0
    2.5981   -1.5000    0.0000 C   0  0  0  0  0  0  0  0  0  0  0  0
    3.4641   -1.0000    0.0000 C   0  0  0  0  0  0  0  0  0  0  0  0
    4.3301   -1.5000    0.0000 C   0  0  0  0  0  0  0  0  0  0  0  0
    5.1962   -3.0000    0.0000 H   0  0  0  0  0  0  0  0  0  0  0  0
    3.4641   -4.0000    0.0000 H   0  0  0  0  0  0  0  0  0  0  0  0
    3.4641   -0.0000    0.0000 H   0  0  0  0  0  0  0  0  0  0  0  0
    5.1962   -1.0000    0.0000 H   0  0  0  0  0  0  0  0  0  0  0  0
    1.7321   -3.0000    0.0000 C   0  0  0  0  0  0  0  0  0  0  0  0
    0.8660   -2.5000    0.0000 C   0  0  0  0  0  0  0  0  0  0  0  0
    0.8660   -1.5000    0.0000 C   0  0  0  0  0  0  0  0  0  0  0  0
    1.7321   -1.0000    0.0000 C   0  0  0  0  0  0  0  0  0  0  0  0
    0.0000   -3.0000    0.0000 H   0  0  0  0  0  0  0  0  0  0  0  0
   -0.0000   -1.0000    0.0000 C   0  0  0  0  0  0  0  0  0  0  0  0
    0.0000   -0.0000    0.0000 C   0  0  0  0  0  0  0  0  0  0  0  0
    0.8660    0.5000    0.0000 C   0  0  0  0  0  0  0  0  0  0  0  0
    1.7321   -0.0000    0.0000 C   0  0  0  0  0  0  0  0  0  0  0  0
    0.8660    1.5000    0.0000 H   0  0  0  0  0  0  0  0  0  0  0  0
    2.5981    0.5000    0.0000 H   0  0  0  0  0  0  0  0  0  0  0  0
   -0.8660   -1.5000    0.0000 C   0  0  0  0  0  0  0  0  0  0  0  0
   -1.7321   -1.0000    0.0000 C   0  0  0  0  0  0  0  0  0  0  0  0
   -1.7321    0.0000    0.0000 C   0  0  0  0  0  0  0  0  0  0  0  0
   -0.8660    0.5000    0.0000 C   0  0  0  0  0  0  0  0  0  0  0  0
   -0.8660   -2.5000    0.0000 H   0  0  0  0  0  0  0  0  0  0  0  0
   -2.5981   -1.5000    0.0000 H   0  0  0  0  0  0  0  0  0  0  0  0
   -2.5981    0.5000    0.0000 H   0  0  0  0  0  0  0  0  0  0  0  0
   -0.8660    1.5000    0.0000 H   0  0  0  0  0  0  0  0  0  0  0  0
    1.7321   -4.0000    0.0000 N   0  0  0  0  0  0  0  0  0  0  0  0
    0.8660   -4.5000    0.0000 O   0  0  0  0  0  0  0  0  0  0  0  0
    2.5981   -4.5000    0.0000 O   0  0  0  0  0  0  0  0  0  0  0  0
  1  2  2  0  0  0  0
  1  7  1  0  0  0  0
  2  3  1  0  0  0  0
  2  8  1  0  0  0  0
  3  4  2  0  0  0  0
  3 11  1  0  0  0  0
  4  5  1  0  0  0  0
  5  6  2  0  0  0  0
  5  9  1  0  0  0  0
  6  1  1  0  0  0  0
  6 10  1  0  0  0  0
 11 12  2  0  0  0  0
 11 30  1  0  0  0  0
 12 13  1  0  0  0  0
 12 15  1  0  0  0  0
 13 14  2  0  0  0  0
 13 16  1  0  0  0  0
 14  4  1  0  0  0  0
 16 17  2  0  0  0  0
 16 22  1  0  0  0  0
 17 18  1  0  0  0  0
 18 19  2  0  0  0  0
 18 20  1  0  0  0  0
 19 14  1  0  0  0  0
 19 21  1  0  0  0  0
 22 23  2  0  0  0  0
 22 26  1  0  0  0  0
 23 24  1  0  0  0  0
 23 27  1  0  0  0  0
 24 25  2  0  0  0  0
 24 28  1  0  0  0  0
 25 17  1  0  0  0  0
 25 29  1  0  0  0  0
 30 31  2  0  0  0  0
 30 32  2  0  0  0  0
M  END
>  <activity>
Active

$$$$
mutag_d123
 OpenBabel01191712022D

 30 31  0  0  0  0  0  0  0  0999 V2000
   -2.5981   -1.5000    0.0000 C   0  0  0  0  0  0  0  0  0  0  0  0
   -2.5981   -0.5000    0.0000 C   0  0  0  0  0  0  0  0  0  0  0  0
   -1.7321    0.0000    0.0000 C   0  0  0  0  0  0  0  0  0  0  0  0
   -0.8660   -0.5000    0.0000 C   0  0  0  0  0  0  0  0  0  0  0  0
   -0.8660   -1.5000    0.0000 C   0  0  0  0  0  0  0  0  0  0  0  0
   -1.7321   -2.0000    0.0000 C   0  0  0  0  0  0  0  0  0  0  0  0
   -3.4641   -2.0000    0.0000 H   0  0  0  0  0  0  0  0  0  0  0  0
   -3.4641    0.0000    0.0000 H   0  0  0  0  0  0  0  0  0  0  0  0
   -1.7321    1.0000    0.0000 H   0  0  0  0  0  0  0  0  0  0  0  0
   -1.7321   -3.0000    0.0000 H   0  0  0  0  0  0  0  0  0  0  0  0
    0.0000    0.0000    0.0000 C   0  0  0  0  0  0  0  0  0  0  0  0
    0.0000    1.0000    0.0000 C   0  0  0  0  0  0  0  0  0  0  0  0
    0.8660    1.5000    0.0000 C   0  0  0  0  0  0  0  0  0  0  0  0
    1.7321    1.0000    0.0000 C   0  0  0  0  0  0  0  0  0  0  0  0
    1.7321   -0.0000    0.0000 C   0  0  0  0  0  0  0  0  0  0  0  0
    0.8660   -0.5000    0.0000 C   0  0  0  0  0  0  0  0  0  0  0  0
   -0.8660    1.5000    0.0000 H   0  0  0  0  0  0  0  0  0  0  0  0
    0.8660    2.5000    0.0000 H   0  0  0  0  0  0  0  0  0  0  0  0
    2.5981   -0.5000    0.0000 C   0  0  0  0  0  0  0  0  0  0  0  0
    3.5981   -0.5000    0.0000 H   0  0  0  0  0  0  0  0  0  0  0  0
    3.0981    0.3660    0.0000 H   0  0  0  0  0  0  0  0  0  0  0  0
    2.5981   -1.5000    0.0000 H   0  0  0  0  0  0  0  0  0  0  0  0
    0.8660   -1.5000    0.0000 H   0  0  0  0  0  0  0  0  0  0  0  0
   -0.0000   -2.0000    0.0000 C   0  0  0  0  0  0  0  0  0  0  0  0
    1.0000   -2.0000    0.0000 H   0  0  0  0  0  0  0  0  0  0  0  0
    0.5000   -1.1340    0.0000 H   0  0  0  0  0  0  0  0  0  0  0  0
   -0.0000   -3.0000    0.0000 H   0  0  0  0  0  0  0  0  0  0  0  0
    2.5981    1.5000    0.0000 N   0  0  0  0  0  0  0  0  0  0  0  0
    3.4641    1.0000    0.0000 O   0  0  0  0  0  0  0  0  0  0  0  0
    2.5981    2.5000    0.0000 O   0  0  0  0  0  0  0  0  0  0  0  0
  1  2  2  0  0  0  0
  1  7  1  0  0  0  0
  2  3  1  0  0  0  0
  2  8  1  0  0  0  0
  3  4  2  0  0  0  0
  3  9  1  0  0  0  0
  4  5  1  0  0  0  0
  4 11  1  0  0  0  0
  5  6  2  0  0  0  0
  5 24  1  0  0  0  0
  6  1  1  0  0  0  0
  6 10  1  0  0  0  0
 11 12  2  0  0  0  0
 12 13  1  0  0  0  0
 12 17  1  0  0  0  0
 13 14  2  0  0  0  0
 13 18  1  0  0  0  0
 14 15  1  0  0  0  0
 14 28  1  0  0  0  0
 15 16  2  0  0  0  0
 15 19  1  0  0  0  0
 16 11  1  0  0  0  0
 16 23  1  0  0  0  0
 19 20  1  0  0  0  0
 19 21  1  0  0  0  0
 19 22  1  0  0  0  0
 24 25  1  0  0  0  0
 24 26  1  0  0  0  0
 24 27  1  0  0  0  0
 28 29  2  0  0  0  0
 28 30  2  0  0  0  0
M  END
>  <activity>
Inactive

$$$$
mutag_d124
 OpenBabel01191712022D

 14 14  0  0  0  0  0  0  0  0999 V2000
   -0.0000   -0.0000    0.0000 C   0  0  0  0  0  0  0  0  0  0  0  0
   -0.8660    0.5000    0.0000 C   0  0  0  0  0  0  0  0  0  0  0  0
   -0.8660    1.5000    0.0000 C   0  0  0  0  0  0  0  0  0  0  0  0
   -0.0000    2.0000    0.0000 C   0  0  0  0  0  0  0  0  0  0  0  0
    0.8660    1.5000    0.0000 C   0  0  0  0  0  0  0  0  0  0  0  0
    0.8660    0.5000    0.0000 C   0  0  0  0  0  0  0  0  0  0  0  0
   -0.0000   -1.0000    0.0000 H   0  0  0  0  0  0  0  0  0  0  0  0
   -1.7321    2.0000    0.0000 H   0  0  0  0  0  0  0  0  0  0  0  0
    1.7321    0.0000    0.0000 H   0  0  0  0  0  0  0  0  0  0  0  0
    1.7321    2.0000    0.0000 N   0  0  0  0  0  0  0  0  0  0  0  0
    0.0000    3.0000    0.0000 F   0  0  0  0  0  0  0  0  0  0  0  0
   -1.7321    0.0000    0.0000 F   0  0  0  0  0  0  0  0  0  0  0  0
    2.5981    1.5000    0.0000 O   0  0  0  0  0  0  0  0  0  0  0  0
    1.7321    3.0000    0.0000 O   0  0  0  0  0  0  0  0  0  0  0  0
  1  2  2  0  0  0  0
  1  7  1  0  0  0  0
  2  3  1  0  0  0  0
  2 12  1  0  0  0  0
  3  4  2  0  0  0  0
  3  8  1  0  0  0  0
  4  5  1  0  0  0  0
  4 11  1  0  0  0  0
  5  6  2  0  0  0  0
  5 10  1  0  0  0  0
  6  1  1  0  0  0  0
  6  9  1  0  0  0  0
 10 13  2  0  0  0  0
 10 14  2  0  0  0  0
M  END
>  <activity>
Inactive

$$$$
mutag_d125
 OpenBabel01191712022D

 30 33  0  0  0  0  0  0  0  0999 V2000
    3.0642   -0.9452    0.0000 C   0  0  0  0  0  0  0  0  0  0  0  0
    3.0642    0.0235    0.0000 C   0  0  0  0  0  0  0  0  0  0  0  0
    2.2253    0.5079    0.0000 C   0  0  0  0  0  0  0  0  0  0  0  0
    1.3863    0.0235    0.0000 C   0  0  0  0  0  0  0  0  0  0  0  0
    1.3863   -0.9452    0.0000 C   0  0  0  0  0  0  0  0  0  0  0  0
    2.2253   -1.4296    0.0000 C   0  0  0  0  0  0  0  0  0  0  0  0
    2.2253    1.4766    0.0000 C   0  0  0  0  0  0  0  0  0  0  0  0
    1.3863    1.9610    0.0000 C   0  0  0  0  0  0  0  0  0  0  0  0
    0.5474    1.4766    0.0000 C   0  0  0  0  0  0  0  0  0  0  0  0
    0.5474    0.5079    0.0000 C   0  0  0  0  0  0  0  0  0  0  0  0
    0.0000   -0.0000    0.0000 C   0  0  0  0  0  0  0  0  0  0  0  0
    0.0558   -0.7446    0.0000 C   0  0  0  0  0  0  0  0  0  0  0  0
    0.6728   -1.1653    0.0000 C   0  0  0  0  0  0  0  0  0  0  0  0
   -0.1475    1.5679    0.0000 C   0  0  0  0  0  0  0  0  0  0  0  0
   -0.6521    1.0815    0.0000 C   0  0  0  0  0  0  0  0  0  0  0  0
   -0.5865    0.3837    0.0000 C   0  0  0  0  0  0  0  0  0  0  0  0
   -1.5604    1.4182    0.0000 N   0  0  0  0  0  0  0  0  0  0  0  0
    3.9032   -1.4296    0.0000 H   0  0  0  0  0  0  0  0  0  0  0  0
    3.9032    0.5079    0.0000 H   0  0  0  0  0  0  0  0  0  0  0  0
    2.2253   -2.3983    0.0000 H   0  0  0  0  0  0  0  0  0  0  0  0
   -0.7831   -1.2290    0.0000 H   0  0  0  0  0  0  0  0  0  0  0  0
    0.5284   -2.1232    0.0000 H   0  0  0  0  0  0  0  0  0  0  0  0
   -0.4506    2.4880    0.0000 H   0  0  0  0  0  0  0  0  0  0  0  0
   -1.4161   -0.1165    0.0000 H   0  0  0  0  0  0  0  0  0  0  0  0
    3.1940    1.4766    0.0000 H   0  0  0  0  0  0  0  0  0  0  0  0
    3.1940    3.1545    0.0000 H   0  0  0  0  0  0  0  0  0  0  0  0
    2.2813    2.3317    0.0000 H   0  0  0  0  0  0  0  0  0  0  0  0
    0.7013    2.6460    0.0000 H   0  0  0  0  0  0  0  0  0  0  0  0
   -1.7230    2.3732    0.0000 O   0  0  0  0  0  0  0  0  0  0  0  0
   -2.3062    0.8000    0.0000 O   0  0  0  0  0  0  0  0  0  0  0  0
  1  2  2  0  0  0  0
  1 18  1  0  0  0  0
  2  3  1  0  0  0  0
  2 19  1  0  0  0  0
  3  4  2  0  0  0  0
  3  7  1  0  0  0  0
  4  5  1  0  0  0  0
  5  6  2  0  0  0  0
  6  1  1  0  0  0  0
  6 20  1  0  0  0  0
  7  8  1  0  0  0  0
  7 25  1  0  0  0  0
  7 26  1  0  0  0  0
  8  9  1  0  0  0  0
  8 27  1  0  0  0  0
  8 28  1  0  0  0  0
  9 10  2  0  0  0  0
  9 14  1  0  0  0  0
 10  4  1  0  0  0  0
 10 11  1  0  0  0  0
 11 12  1  0  0  0  0
 12 13  2  0  0  0  0
 12 21  1  0  0  0  0
 13  5  1  0  0  0  0
 13 22  1  0  0  0  0
 14 15  2  0  0  0  0
 14 23  1  0  0  0  0
 15 16  1  0  0  0  0
 15 17  1  0  0  0  0
 16 11  2  0  0  0  0
 16 24  1  0  0  0  0
 17 29  2  0  0  0  0
 17 30  2  0  0  0  0
M  END
>  <activity>
Active

$$$$
mutag_d126
 OpenBabel01191712022D

 28 30  0  0  0  0  0  0  0  0999 V2000
    3.4641   -1.0000    0.0000 C   0  0  0  0  0  0  0  0  0  0  0  0
    2.5981   -1.5000    0.0000 C   0  0  0  0  0  0  0  0  0  0  0  0
    1.7321   -1.0000    0.0000 C   0  0  0  0  0  0  0  0  0  0  0  0
    1.7321   -0.0000    0.0000 C   0  0  0  0  0  0  0  0  0  0  0  0
    2.5981    0.5000    0.0000 C   0  0  0  0  0  0  0  0  0  0  0  0
    3.4641    0.0000    0.0000 C   0  0  0  0  0  0  0  0  0  0  0  0
    2.5981   -2.5000    0.0000 H   0  0  0  0  0  0  0  0  0  0  0  0
    2.5981    1.5000    0.0000 H   0  0  0  0  0  0  0  0  0  0  0  0
    4.3301    0.5000    0.0000 H   0  0  0  0  0  0  0  0  0  0  0  0
    0.8660   -1.5000    0.0000 N   0  0  0  0  0  0  0  0  0  0  0  0
   -0.0000   -1.0000    0.0000 C   0  0  0  0  0  0  0  0  0  0  0  0
    0.0000   -0.0000    0.0000 C   0  0  0  0  0  0  0  0  0  0  0  0
    0.8660    0.5000    0.0000 N   0  0  0  0  0  0  0  0  0  0  0  0
   -0.8660   -1.5000    0.0000 C   0  0  0  0  0  0  0  0  0  0  0  0
   -1.7321   -1.0000    0.0000 C   0  0  0  0  0  0  0  0  0  0  0  0
   -1.7321    0.0000    0.0000 C   0  0  0  0  0  0  0  0  0  0  0  0
   -0.8660    0.5000    0.0000 C   0  0  0  0  0  0  0  0  0  0  0  0
   -0.8660   -2.5000    0.0000 H   0  0  0  0  0  0  0  0  0  0  0  0
   -2.5981   -1.5000    0.0000 H   0  0  0  0  0  0  0  0  0  0  0  0
   -2.5981    0.5000    0.0000 H   0  0  0  0  0  0  0  0  0  0  0  0
    0.8660    1.5000    0.0000 H   0  0  0  0  0  0  0  0  0  0  0  0
    0.8660   -2.5000    0.0000 H   0  0  0  0  0  0  0  0  0  0  0  0
   -0.8660    1.5000    0.0000 N   0  0  0  0  0  0  0  0  0  0  0  0
    4.3301   -1.5000    0.0000 N   0  0  0  0  0  0  0  0  0  0  0  0
   -0.0000    2.0000    0.0000 O   0  0  0  0  0  0  0  0  0  0  0  0
   -1.7321    2.0000    0.0000 O   0  0  0  0  0  0  0  0  0  0  0  0
    4.3301   -2.5000    0.0000 O   0  0  0  0  0  0  0  0  0  0  0  0
    5.1962   -1.0000    0.0000 O   0  0  0  0  0  0  0  0  0  0  0  0
  1  2  2  0  0  0  0
  1 24  1  0  0  0  0
  2  3  1  0  0  0  0
  2  7  1  0  0  0  0
  3  4  2  0  0  0  0
  3 10  1  0  0  0  0
  4  5  1  0  0  0  0
  5  6  2  0  0  0  0
  5  8  1  0  0  0  0
  6  1  1  0  0  0  0
  6  9  1  0  0  0  0
 10 11  1  0  0  0  0
 10 22  1  0  0  0  0
 11 12  2  0  0  0  0
 11 14  1  0  0  0  0
 12 13  1  0  0  0  0
 13  4  1  0  0  0  0
 13 21  1  0  0  0  0
 14 15  2  0  0  0  0
 14 18  1  0  0  0  0
 15 16  1  0  0  0  0
 15 19  1  0  0  0  0
 16 17  2  0  0  0  0
 16 20  1  0  0  0  0
 17 12  1  0  0  0  0
 17 23  1  0  0  0  0
 23 25  2  0  0  0  0
 23 26  2  0  0  0  0
 24 27  2  0  0  0  0
 24 28  2  0  0  0  0
M  END
>  <activity>
Active

$$$$
mutag_d127
 OpenBabel01191712022D

 28 29  0  0  0  0  0  0  0  0999 V2000
   -2.5981   -1.5000    0.0000 C   0  0  0  0  0  0  0  0  0  0  0  0
   -2.5981   -0.5000    0.0000 C   0  0  0  0  0  0  0  0  0  0  0  0
   -1.7321    0.0000    0.0000 C   0  0  0  0  0  0  0  0  0  0  0  0
   -0.8660   -0.5000    0.0000 C   0  0  0  0  0  0  0  0  0  0  0  0
   -0.8660   -1.5000    0.0000 C   0  0  0  0  0  0  0  0  0  0  0  0
   -1.7321   -2.0000    0.0000 C   0  0  0  0  0  0  0  0  0  0  0  0
   -3.4641   -2.0000    0.0000 H   0  0  0  0  0  0  0  0  0  0  0  0
   -3.4641   -0.0000    0.0000 H   0  0  0  0  0  0  0  0  0  0  0  0
   -1.7321    1.0000    0.0000 H   0  0  0  0  0  0  0  0  0  0  0  0
    0.0000   -2.0000    0.0000 H   0  0  0  0  0  0  0  0  0  0  0  0
    0.0000    0.0000    0.0000 C   0  0  0  0  0  0  0  0  0  0  0  0
    0.0000    1.0000    0.0000 C   0  0  0  0  0  0  0  0  0  0  0  0
    0.8660    1.5000    0.0000 C   0  0  0  0  0  0  0  0  0  0  0  0
    1.7321    1.0000    0.0000 C   0  0  0  0  0  0  0  0  0  0  0  0
    1.7321   -0.0000    0.0000 C   0  0  0  0  0  0  0  0  0  0  0  0
    0.8660   -0.5000    0.0000 C   0  0  0  0  0  0  0  0  0  0  0  0
   -0.8660    1.5000    0.0000 H   0  0  0  0  0  0  0  0  0  0  0  0
    0.8660    2.5000    0.0000 H   0  0  0  0  0  0  0  0  0  0  0  0
    0.8660   -1.5000    0.0000 H   0  0  0  0  0  0  0  0  0  0  0  0
    2.5981   -0.5000    0.0000 N   0  0  0  0  0  0  0  0  0  0  0  0
   -1.7321   -3.0000    0.0000 N   0  0  0  0  0  0  0  0  0  0  0  0
    2.5981    1.5000    0.0000 N   0  0  0  0  0  0  0  0  0  0  0  0
    2.5981   -1.5000    0.0000 O   0  0  0  0  0  0  0  0  0  0  0  0
    3.4641    0.0000    0.0000 O   0  0  0  0  0  0  0  0  0  0  0  0
    3.4641    1.0000    0.0000 O   0  0  0  0  0  0  0  0  0  0  0  0
    2.5981    2.5000    0.0000 O   0  0  0  0  0  0  0  0  0  0  0  0
   -2.5981   -3.5000    0.0000 O   0  0  0  0  0  0  0  0  0  0  0  0
   -0.8660   -3.5000    0.0000 O   0  0  0  0  0  0  0  0  0  0  0  0
  1  2  2  0  0  0  0
  1  7  1  0  0  0  0
  2  3  1  0  0  0  0
  2  8  1  0  0  0  0
  3  4  2  0  0  0  0
  3  9  1  0  0  0  0
  4  5  1  0  0  0  0
  4 11  1  0  0  0  0
  5  6  2  0  0  0  0
  5 10  1  0  0  0  0
  6  1  1  0  0  0  0
  6 21  1  0  0  0  0
 11 12  2  0  0  0  0
 12 13  1  0  0  0  0
 12 17  1  0  0  0  0
 13 14  2  0  0  0  0
 13 18  1  0  0  0  0
 14 15  1  0  0  0  0
 14 22  1  0  0  0  0
 15 16  2  0  0  0  0
 15 20  1  0  0  0  0
 16 11  1  0  0  0  0
 16 19  1  0  0  0  0
 20 23  2  0  0  0  0
 20 24  2  0  0  0  0
 21 27  2  0  0  0  0
 21 28  2  0  0  0  0
 22 25  2  0  0  0  0
 22 26  2  0  0  0  0
M  END
>  <activity>
Active

$$$$
mutag_d128
 OpenBabel01191712022D

 22 24  0  0  0  0  0  0  0  0999 V2000
   -2.4075    2.3157    0.0000 C   0  0  0  0  0  0  0  0  0  0  0  0
   -1.6051    2.7791    0.0000 C   0  0  0  0  0  0  0  0  0  0  0  0
   -0.8029    2.3160    0.0000 C   0  0  0  0  0  0  0  0  0  0  0  0
   -0.8027    1.3897    0.0000 C   0  0  0  0  0  0  0  0  0  0  0  0
   -1.6048    0.9260    0.0000 C   0  0  0  0  0  0  0  0  0  0  0  0
   -2.4073    1.3894    0.0000 C   0  0  0  0  0  0  0  0  0  0  0  0
   -0.0005    2.7794    0.0000 C   0  0  0  0  0  0  0  0  0  0  0  0
    0.8020    2.3163    0.0000 C   0  0  0  0  0  0  0  0  0  0  0  0
    0.8022    1.3900    0.0000 C   0  0  0  0  0  0  0  0  0  0  0  0
   -0.0002    0.9263    0.0000 C   0  0  0  0  0  0  0  0  0  0  0  0
   -1.6046   -0.0003    0.0000 C   0  0  0  0  0  0  0  0  0  0  0  0
    0.0000   -0.0000    0.0000 C   0  0  0  0  0  0  0  0  0  0  0  0
   -3.2518    2.8031    0.0000 H   0  0  0  0  0  0  0  0  0  0  0  0
   -1.6052    3.7540    0.0000 H   0  0  0  0  0  0  0  0  0  0  0  0
   -3.2515    0.9019    0.0000 H   0  0  0  0  0  0  0  0  0  0  0  0
    1.6463    2.8039    0.0000 H   0  0  0  0  0  0  0  0  0  0  0  0
    1.6466    0.9028    0.0000 H   0  0  0  0  0  0  0  0  0  0  0  0
   -2.2938   -0.6898    0.0000 H   0  0  0  0  0  0  0  0  0  0  0  0
    0.6895   -0.6892    0.0000 H   0  0  0  0  0  0  0  0  0  0  0  0
   -0.0007    3.7059    0.0000 N   0  0  0  0  0  0  0  0  0  0  0  0
    0.5876    4.4217    0.0000 O   0  0  0  0  0  0  0  0  0  0  0  0
   -0.9147    3.8575    0.0000 O   0  0  0  0  0  0  0  0  0  0  0  0
  1  2  2  0  0  0  0
  1 13  1  0  0  0  0
  2  3  1  0  0  0  0
  2 14  1  0  0  0  0
  3  4  2  0  0  0  0
  3  7  1  0  0  0  0
  4  5  1  0  0  0  0
  5  6  2  0  0  0  0
  5 11  1  0  0  0  0
  6  1  1  0  0  0  0
  6 15  1  0  0  0  0
  7  8  2  0  0  0  0
  7 20  1  0  0  0  0
  8  9  1  0  0  0  0
  8 16  1  0  0  0  0
  9 10  2  0  0  0  0
  9 17  1  0  0  0  0
 10  4  1  0  0  0  0
 10 12  1  0  0  0  0
 11 12  2  0  0  0  0
 11 18  1  0  0  0  0
 12 19  1  0  0  0  0
 20 21  2  0  0  0  0
 20 22  2  0  0  0  0
M  END
>  <activity>
Active

$$$$
mutag_d129
 OpenBabel01191712022D

 20 20  0  0  0  0  0  0  0  0999 V2000
    0.0000    0.0000    0.0000 C   0  0  0  0  0  0  0  0  0  0  0  0
    0.0000    1.0000    0.0000 C   0  0  0  0  0  0  0  0  0  0  0  0
    0.8660    1.5000    0.0000 C   0  0  0  0  0  0  0  0  0  0  0  0
    1.7321    1.0000    0.0000 C   0  0  0  0  0  0  0  0  0  0  0  0
    1.7321   -0.0000    0.0000 C   0  0  0  0  0  0  0  0  0  0  0  0
    0.8660   -0.5000    0.0000 C   0  0  0  0  0  0  0  0  0  0  0  0
   -0.8660   -0.5000    0.0000 H   0  0  0  0  0  0  0  0  0  0  0  0
    0.8660    2.5000    0.0000 H   0  0  0  0  0  0  0  0  0  0  0  0
    0.8660   -1.5000    0.0000 H   0  0  0  0  0  0  0  0  0  0  0  0
    2.5981   -0.5000    0.0000 N   0  0  0  0  0  0  0  0  0  0  0  0
    2.5981   -1.5000    0.0000 N   0  0  0  0  0  0  0  0  0  0  0  0
    3.4641   -0.0000    0.0000 H   0  0  0  0  0  0  0  0  0  0  0  0
    1.7321   -2.0000    0.0000 H   0  0  0  0  0  0  0  0  0  0  0  0
    3.4641   -2.0000    0.0000 H   0  0  0  0  0  0  0  0  0  0  0  0
    2.5981    1.5000    0.0000 N   0  0  0  0  0  0  0  0  0  0  0  0
   -0.8660    1.5000    0.0000 N   0  0  0  0  0  0  0  0  0  0  0  0
    3.4641    1.0000    0.0000 O   0  0  0  0  0  0  0  0  0  0  0  0
    2.5981    2.5000    0.0000 O   0  0  0  0  0  0  0  0  0  0  0  0
   -0.8660    2.5000    0.0000 O   0  0  0  0  0  0  0  0  0  0  0  0
   -1.7321    1.0000    0.0000 O   0  0  0  0  0  0  0  0  0  0  0  0
  1  2  2  0  0  0  0
  1  7  1  0  0  0  0
  2  3  1  0  0  0  0
  2 16  1  0  0  0  0
  3  4  2  0  0  0  0
  3  8  1  0  0  0  0
  4  5  1  0  0  0  0
  4 15  1  0  0  0  0
  5  6  2  0  0  0  0
  5 10  1  0  0  0  0
  6  1  1  0  0  0  0
  6  9  1  0  0  0  0
 10 11  1  0  0  0  0
 10 12  1  0  0  0  0
 11 13  1  0  0  0  0
 11 14  1  0  0  0  0
 15 17  2  0  0  0  0
 15 18  2  0  0  0  0
 16 19  2  0  0  0  0
 16 20  2  0  0  0  0
M  END
>  <activity>
Inactive

$$$$
mutag_d13
 OpenBabel01191712022D

 30 33  0  0  0  0  0  0  0  0999 V2000
    0.0006    2.8487    0.0000 C   0  0  0  0  0  0  0  0  0  0  0  0
    0.8231    2.3739    0.0000 C   0  0  0  0  0  0  0  0  0  0  0  0
    0.8229    1.4245    0.0000 C   0  0  0  0  0  0  0  0  0  0  0  0
    0.0002    0.9499    0.0000 C   0  0  0  0  0  0  0  0  0  0  0  0
   -0.8218    1.4248    0.0000 C   0  0  0  0  0  0  0  0  0  0  0  0
   -0.8216    2.3742    0.0000 C   0  0  0  0  0  0  0  0  0  0  0  0
    1.6449    0.9496    0.0000 C   0  0  0  0  0  0  0  0  0  0  0  0
    1.6447   -0.0003    0.0000 C   0  0  0  0  0  0  0  0  0  0  0  0
    0.8225   -0.4749    0.0000 C   0  0  0  0  0  0  0  0  0  0  0  0
    0.0000   -0.0000    0.0000 C   0  0  0  0  0  0  0  0  0  0  0  0
   -2.4670    1.4251    0.0000 C   0  0  0  0  0  0  0  0  0  0  0  0
   -1.6445    0.9502    0.0000 C   0  0  0  0  0  0  0  0  0  0  0  0
   -1.6447    0.0003    0.0000 C   0  0  0  0  0  0  0  0  0  0  0  0
   -2.4674   -0.4742    0.0000 C   0  0  0  0  0  0  0  0  0  0  0  0
   -3.2894    0.0007    0.0000 C   0  0  0  0  0  0  0  0  0  0  0  0
   -3.2892    0.9506    0.0000 C   0  0  0  0  0  0  0  0  0  0  0  0
    2.4668   -0.4751    0.0000 N   0  0  0  0  0  0  0  0  0  0  0  0
    1.6453    2.8485    0.0000 N   0  0  0  0  0  0  0  0  0  0  0  0
    2.6640   -1.4037    0.0000 O   0  0  0  0  0  0  0  0  0  0  0  0
    3.1723    0.1600    0.0000 O   0  0  0  0  0  0  0  0  0  0  0  0
    2.5126    2.4622    0.0000 O   0  0  0  0  0  0  0  0  0  0  0  0
    1.5462    3.7927    0.0000 O   0  0  0  0  0  0  0  0  0  0  0  0
    0.0006    3.8261    0.0000 H   0  0  0  0  0  0  0  0  0  0  0  0
   -1.6680    2.8630    0.0000 H   0  0  0  0  0  0  0  0  0  0  0  0
    2.4914    1.4381    0.0000 H   0  0  0  0  0  0  0  0  0  0  0  0
    0.8224   -1.4522    0.0000 H   0  0  0  0  0  0  0  0  0  0  0  0
   -2.4669    2.4025    0.0000 H   0  0  0  0  0  0  0  0  0  0  0  0
   -2.4675   -1.4516    0.0000 H   0  0  0  0  0  0  0  0  0  0  0  0
   -4.1359   -0.4878    0.0000 H   0  0  0  0  0  0  0  0  0  0  0  0
   -4.1355    1.4394    0.0000 H   0  0  0  0  0  0  0  0  0  0  0  0
  1  2  2  0  0  0  0
  1 23  1  0  0  0  0
  2  3  1  0  0  0  0
  2 18  1  0  0  0  0
  3  4  2  0  0  0  0
  3  7  1  0  0  0  0
  4  5  1  0  0  0  0
  5  6  2  0  0  0  0
  6  1  1  0  0  0  0
  6 24  1  0  0  0  0
  7  8  2  0  0  0  0
  7 25  1  0  0  0  0
  8  9  1  0  0  0  0
  8 17  1  0  0  0  0
  9 10  2  0  0  0  0
  9 26  1  0  0  0  0
 10  4  1  0  0  0  0
 11 12  2  0  0  0  0
 11 27  1  0  0  0  0
 12 13  1  0  0  0  0
 12  5  1  0  0  0  0
 13 14  2  0  0  0  0
 13 10  1  0  0  0  0
 14 15  1  0  0  0  0
 14 28  1  0  0  0  0
 15 16  2  0  0  0  0
 15 29  1  0  0  0  0
 16 11  1  0  0  0  0
 16 30  1  0  0  0  0
 17 19  2  0  0  0  0
 17 20  2  0  0  0  0
 18 21  2  0  0  0  0
 18 22  2  0  0  0  0
M  END
>  <activity>
Active

$$$$
mutag_d130
 OpenBabel01191712022D

 18 18  0  0  0  0  0  0  0  0999 V2000
    0.0000   -0.0000    0.0000 C   0  0  0  0  0  0  0  0  0  0  0  0
    0.8660   -0.5000    0.0000 C   0  0  0  0  0  0  0  0  0  0  0  0
    0.8660   -1.5000    0.0000 C   0  0  0  0  0  0  0  0  0  0  0  0
    0.0000   -2.0000    0.0000 C   0  0  0  0  0  0  0  0  0  0  0  0
   -0.8660   -1.5000    0.0000 C   0  0  0  0  0  0  0  0  0  0  0  0
   -0.8660   -0.5000    0.0000 C   0  0  0  0  0  0  0  0  0  0  0  0
    0.0000    1.0000    0.0000 H   0  0  0  0  0  0  0  0  0  0  0  0
    1.7321   -0.0000    0.0000 H   0  0  0  0  0  0  0  0  0  0  0  0
    1.7321   -2.0000    0.0000 H   0  0  0  0  0  0  0  0  0  0  0  0
   -1.7321   -0.0000    0.0000 H   0  0  0  0  0  0  0  0  0  0  0  0
   -1.7321   -2.0000    0.0000 O   0  0  0  0  0  0  0  0  0  0  0  0
   -2.5981   -1.5000    0.0000 C   0  0  0  0  0  0  0  0  0  0  0  0
   -3.5981   -1.5000    0.0000 H   0  0  0  0  0  0  0  0  0  0  0  0
   -3.0981   -2.3660    0.0000 H   0  0  0  0  0  0  0  0  0  0  0  0
   -2.5981   -0.5000    0.0000 H   0  0  0  0  0  0  0  0  0  0  0  0
    0.0000   -3.0000    0.0000 N   0  0  0  0  0  0  0  0  0  0  0  0
   -0.8660   -3.5000    0.0000 O   0  0  0  0  0  0  0  0  0  0  0  0
    0.8660   -3.5000    0.0000 O   0  0  0  0  0  0  0  0  0  0  0  0
  1  2  2  0  0  0  0
  1  7  1  0  0  0  0
  2  3  1  0  0  0  0
  2  8  1  0  0  0  0
  3  4  2  0  0  0  0
  3  9  1  0  0  0  0
  4  5  1  0  0  0  0
  4 16  1  0  0  0  0
  5  6  2  0  0  0  0
  5 11  1  0  0  0  0
  6  1  1  0  0  0  0
  6 10  1  0  0  0  0
 11 12  1  0  0  0  0
 12 13  1  0  0  0  0
 12 14  1  0  0  0  0
 12 15  1  0  0  0  0
 16 17  2  0  0  0  0
 16 18  2  0  0  0  0
M  END
>  <activity>
Inactive

$$$$
mutag_d131
 OpenBabel01191712022D

 29 30  0  0  0  0  0  0  0  0999 V2000
   -3.4641   -0.0000    0.0000 C   0  0  0  0  0  0  0  0  0  0  0  0
   -4.3301    0.5000    0.0000 C   0  0  0  0  0  0  0  0  0  0  0  0
   -4.3301    1.5000    0.0000 C   0  0  0  0  0  0  0  0  0  0  0  0
   -3.4641    2.0000    0.0000 C   0  0  0  0  0  0  0  0  0  0  0  0
   -2.5981    1.5000    0.0000 C   0  0  0  0  0  0  0  0  0  0  0  0
   -2.5981    0.5000    0.0000 C   0  0  0  0  0  0  0  0  0  0  0  0
   -3.4641   -1.0000    0.0000 H   0  0  0  0  0  0  0  0  0  0  0  0
   -5.1962    2.0000    0.0000 H   0  0  0  0  0  0  0  0  0  0  0  0
   -3.4641    3.0000    0.0000 H   0  0  0  0  0  0  0  0  0  0  0  0
   -1.7321    0.0000    0.0000 H   0  0  0  0  0  0  0  0  0  0  0  0
   -1.7321    2.0000    0.0000 C   0  0  0  0  0  0  0  0  0  0  0  0
   -0.8660    1.5000    0.0000 C   0  0  0  0  0  0  0  0  0  0  0  0
   -1.7321    3.0000    0.0000 H   0  0  0  0  0  0  0  0  0  0  0  0
   -0.8660    0.5000    0.0000 O   0  0  0  0  0  0  0  0  0  0  0  0
   -0.0000    2.0000    0.0000 H   0  0  0  0  0  0  0  0  0  0  0  0
   -0.0000   -0.0000    0.0000 C   0  0  0  0  0  0  0  0  0  0  0  0
    0.8660    0.5000    0.0000 C   0  0  0  0  0  0  0  0  0  0  0  0
    1.7321    0.0000    0.0000 C   0  0  0  0  0  0  0  0  0  0  0  0
    1.7321   -1.0000    0.0000 C   0  0  0  0  0  0  0  0  0  0  0  0
    0.8660   -1.5000    0.0000 C   0  0  0  0  0  0  0  0  0  0  0  0
    0.0000   -1.0000    0.0000 C   0  0  0  0  0  0  0  0  0  0  0  0
    0.8660    1.5000    0.0000 H   0  0  0  0  0  0  0  0  0  0  0  0
    2.5981    0.5000    0.0000 H   0  0  0  0  0  0  0  0  0  0  0  0
    2.5981   -1.5000    0.0000 H   0  0  0  0  0  0  0  0  0  0  0  0
    0.8660   -2.5000    0.0000 H   0  0  0  0  0  0  0  0  0  0  0  0
   -0.8660   -1.5000    0.0000 H   0  0  0  0  0  0  0  0  0  0  0  0
   -5.1962   -0.0000    0.0000 N   0  0  0  0  0  0  0  0  0  0  0  0
   -6.0622    0.5000    0.0000 O   0  0  0  0  0  0  0  0  0  0  0  0
   -5.1962   -1.0000    0.0000 O   0  0  0  0  0  0  0  0  0  0  0  0
  1  2  2  0  0  0  0
  1  7  1  0  0  0  0
  2  3  1  0  0  0  0
  2 27  1  0  0  0  0
  3  4  2  0  0  0  0
  3  8  1  0  0  0  0
  4  5  1  0  0  0  0
  4  9  1  0  0  0  0
  5  6  2  0  0  0  0
  5 11  1  0  0  0  0
  6  1  1  0  0  0  0
  6 10  1  0  0  0  0
 11 12  2  3  0  0  0
 11 13  1  0  0  0  0
 12 14  1  0  0  0  0
 12 15  1  0  0  0  0
 14 16  1  0  0  0  0
 16 17  2  0  0  0  0
 17 18  1  0  0  0  0
 17 22  1  0  0  0  0
 18 19  2  0  0  0  0
 18 23  1  0  0  0  0
 19 20  1  0  0  0  0
 19 24  1  0  0  0  0
 20 21  2  0  0  0  0
 20 25  1  0  0  0  0
 21 16  1  0  0  0  0
 21 26  1  0  0  0  0
 27 28  2  0  0  0  0
 27 29  2  0  0  0  0
M  END
>  <activity>
Inactive

$$$$
mutag_d132
 OpenBabel01191712022D

 16 16  0  0  0  0  0  0  0  0999 V2000
   -0.0000   -0.0000    0.0000 C   0  0  0  0  0  0  0  0  0  0  0  0
   -0.8660    0.5000    0.0000 C   0  0  0  0  0  0  0  0  0  0  0  0
   -0.8660    1.5000    0.0000 C   0  0  0  0  0  0  0  0  0  0  0  0
   -0.0000    2.0000    0.0000 C   0  0  0  0  0  0  0  0  0  0  0  0
    0.8660    1.5000    0.0000 C   0  0  0  0  0  0  0  0  0  0  0  0
    0.8660    0.5000    0.0000 C   0  0  0  0  0  0  0  0  0  0  0  0
   -0.0000   -1.0000    0.0000 H   0  0  0  0  0  0  0  0  0  0  0  0
   -1.7321    0.0000    0.0000 H   0  0  0  0  0  0  0  0  0  0  0  0
   -1.7321    2.0000    0.0000 H   0  0  0  0  0  0  0  0  0  0  0  0
    1.7321    0.0000    0.0000 H   0  0  0  0  0  0  0  0  0  0  0  0
    1.7321    2.0000    0.0000 C   0  0  0  0  0  0  0  0  0  0  0  0
    2.5981    1.5000    0.0000 O   0  0  0  0  0  0  0  0  0  0  0  0
    1.7321    3.0000    0.0000 H   0  0  0  0  0  0  0  0  0  0  0  0
   -0.0000    3.0000    0.0000 N   0  0  0  0  0  0  0  0  0  0  0  0
    0.8660    3.5000    0.0000 O   0  0  0  0  0  0  0  0  0  0  0  0
   -0.8660    3.5000    0.0000 O   0  0  0  0  0  0  0  0  0  0  0  0
  1  2  2  0  0  0  0
  1  7  1  0  0  0  0
  2  3  1  0  0  0  0
  2  8  1  0  0  0  0
  3  4  2  0  0  0  0
  3  9  1  0  0  0  0
  4  5  1  0  0  0  0
  4 14  1  0  0  0  0
  5  6  2  0  0  0  0
  5 11  1  0  0  0  0
  6  1  1  0  0  0  0
  6 10  1  0  0  0  0
 11 12  2  0  0  0  0
 11 13  1  0  0  0  0
 14 15  2  0  0  0  0
 14 16  2  0  0  0  0
M  END
>  <activity>
Inactive

$$$$
mutag_d133
 OpenBabel01191712022D

 24 26  0  0  0  0  0  0  0  0999 V2000
    3.4641   -1.0000    0.0000 C   0  0  0  0  0  0  0  0  0  0  0  0
    2.5981   -1.5000    0.0000 C   0  0  0  0  0  0  0  0  0  0  0  0
    1.7321   -1.0000    0.0000 C   0  0  0  0  0  0  0  0  0  0  0  0
    1.7321   -0.0000    0.0000 C   0  0  0  0  0  0  0  0  0  0  0  0
    2.5981    0.5000    0.0000 C   0  0  0  0  0  0  0  0  0  0  0  0
    3.4641   -0.0000    0.0000 C   0  0  0  0  0  0  0  0  0  0  0  0
    2.5981   -2.5000    0.0000 H   0  0  0  0  0  0  0  0  0  0  0  0
    2.5981    1.5000    0.0000 H   0  0  0  0  0  0  0  0  0  0  0  0
    0.8660   -1.5000    0.0000 O   0  0  0  0  0  0  0  0  0  0  0  0
   -0.0000   -1.0000    0.0000 C   0  0  0  0  0  0  0  0  0  0  0  0
    0.0000   -0.0000    0.0000 C   0  0  0  0  0  0  0  0  0  0  0  0
    0.8660    0.5000    0.0000 O   0  0  0  0  0  0  0  0  0  0  0  0
   -0.8660   -1.5000    0.0000 C   0  0  0  0  0  0  0  0  0  0  0  0
   -1.7321   -1.0000    0.0000 C   0  0  0  0  0  0  0  0  0  0  0  0
   -1.7321    0.0000    0.0000 C   0  0  0  0  0  0  0  0  0  0  0  0
   -0.8660    0.5000    0.0000 C   0  0  0  0  0  0  0  0  0  0  0  0
   -0.8660   -2.5000    0.0000 H   0  0  0  0  0  0  0  0  0  0  0  0
   -2.5981    0.5000    0.0000 N   0  0  0  0  0  0  0  0  0  0  0  0
   -0.8660    1.5000    0.0000 Cl  0  0  0  0  0  0  0  0  0  0  0  0
   -2.5981   -1.5000    0.0000 Cl  0  0  0  0  0  0  0  0  0  0  0  0
    4.3301   -1.5000    0.0000 Cl  0  0  0  0  0  0  0  0  0  0  0  0
    4.3301    0.5000    0.0000 Cl  0  0  0  0  0  0  0  0  0  0  0  0
   -2.5981    1.5000    0.0000 O   0  0  0  0  0  0  0  0  0  0  0  0
   -3.4641    0.0000    0.0000 O   0  0  0  0  0  0  0  0  0  0  0  0
  1  2  2  0  0  0  0
  1 21  1  0  0  0  0
  2  3  1  0  0  0  0
  2  7  1  0  0  0  0
  3  4  2  0  0  0  0
  3  9  1  0  0  0  0
  4  5  1  0  0  0  0
  5  6  2  0  0  0  0
  5  8  1  0  0  0  0
  6  1  1  0  0  0  0
  6 22  1  0  0  0  0
  9 10  1  0  0  0  0
 10 11  2  0  0  0  0
 10 13  1  0  0  0  0
 11 12  1  0  0  0  0
 12  4  1  0  0  0  0
 13 14  2  0  0  0  0
 13 17  1  0  0  0  0
 14 15  1  0  0  0  0
 14 20  1  0  0  0  0
 15 16  2  0  0  0  0
 15 18  1  0  0  0  0
 16 11  1  0  0  0  0
 16 19  1  0  0  0  0
 18 23  2  0  0  0  0
 18 24  2  0  0  0  0
M  END
>  <activity>
Inactive

$$$$
mutag_d134
 OpenBabel01191712022D

 32 35  0  0  0  0  0  0  0  0999 V2000
   -3.1631   -0.9757    0.0000 C   0  0  0  0  0  0  0  0  0  0  0  0
   -3.1631    0.0243    0.0000 C   0  0  0  0  0  0  0  0  0  0  0  0
   -2.2971    0.5243    0.0000 C   0  0  0  0  0  0  0  0  0  0  0  0
   -1.4311    0.0243    0.0000 C   0  0  0  0  0  0  0  0  0  0  0  0
   -1.4311   -0.9757    0.0000 C   0  0  0  0  0  0  0  0  0  0  0  0
   -2.2971   -1.4757    0.0000 C   0  0  0  0  0  0  0  0  0  0  0  0
   -2.2971    1.5243    0.0000 C   0  0  0  0  0  0  0  0  0  0  0  0
   -1.4311    2.0243    0.0000 C   0  0  0  0  0  0  0  0  0  0  0  0
   -0.5651    1.5243    0.0000 C   0  0  0  0  0  0  0  0  0  0  0  0
   -0.5651    0.5243    0.0000 C   0  0  0  0  0  0  0  0  0  0  0  0
    0.0000   -0.0000    0.0000 C   0  0  0  0  0  0  0  0  0  0  0  0
   -0.0576   -0.7687    0.0000 C   0  0  0  0  0  0  0  0  0  0  0  0
   -0.6945   -1.2029    0.0000 C   0  0  0  0  0  0  0  0  0  0  0  0
    0.1523    1.6185    0.0000 C   0  0  0  0  0  0  0  0  0  0  0  0
    0.6732    1.1164    0.0000 C   0  0  0  0  0  0  0  0  0  0  0  0
    0.6054    0.3961    0.0000 C   0  0  0  0  0  0  0  0  0  0  0  0
   -4.0292    0.5243    0.0000 H   0  0  0  0  0  0  0  0  0  0  0  0
   -2.2971   -2.4757    0.0000 H   0  0  0  0  0  0  0  0  0  0  0  0
    0.8084   -1.2687    0.0000 H   0  0  0  0  0  0  0  0  0  0  0  0
   -0.5455   -2.1917    0.0000 H   0  0  0  0  0  0  0  0  0  0  0  0
    0.4651    2.5683    0.0000 H   0  0  0  0  0  0  0  0  0  0  0  0
    1.4618   -0.1202    0.0000 H   0  0  0  0  0  0  0  0  0  0  0  0
   -2.7971    2.3903    0.0000 H   0  0  0  0  0  0  0  0  0  0  0  0
   -3.2971    1.5243    0.0000 H   0  0  0  0  0  0  0  0  0  0  0  0
   -0.9311    2.8903    0.0000 H   0  0  0  0  0  0  0  0  0  0  0  0
   -1.9311    2.8903    0.0000 H   0  0  0  0  0  0  0  0  0  0  0  0
    1.6108    1.4640    0.0000 N   0  0  0  0  0  0  0  0  0  0  0  0
   -4.0292   -1.4757    0.0000 N   0  0  0  0  0  0  0  0  0  0  0  0
    2.3807    0.8258    0.0000 O   0  0  0  0  0  0  0  0  0  0  0  0
    1.7786    2.4498    0.0000 O   0  0  0  0  0  0  0  0  0  0  0  0
   -4.8952   -0.9757    0.0000 O   0  0  0  0  0  0  0  0  0  0  0  0
   -4.0292   -2.4757    0.0000 O   0  0  0  0  0  0  0  0  0  0  0  0
  1  2  2  0  0  0  0
  1 28  1  0  0  0  0
  2  3  1  0  0  0  0
  2 17  1  0  0  0  0
  3  4  2  0  0  0  0
  3  7  1  0  0  0  0
  4  5  1  0  0  0  0
  5  6  2  0  0  0  0
  6  1  1  0  0  0  0
  6 18  1  0  0  0  0
  7  8  1  0  0  0  0
  7 23  1  0  0  0  0
  7 24  1  0  0  0  0
  8  9  1  0  0  0  0
  8 25  1  0  0  0  0
  8 26  1  0  0  0  0
  9 10  2  0  0  0  0
  9 14  1  0  0  0  0
 10  4  1  0  0  0  0
 10 11  1  0  0  0  0
 11 12  1  0  0  0  0
 12 13  2  0  0  0  0
 12 19  1  0  0  0  0
 13  5  1  0  0  0  0
 13 20  1  0  0  0  0
 14 15  2  0  0  0  0
 14 21  1  0  0  0  0
 15 16  1  0  0  0  0
 16 11  2  0  0  0  0
 16 22  1  0  0  0  0
 27 15  1  0  0  0  0
 27 29  2  0  0  0  0
 27 30  2  0  0  0  0
 28 31  2  0  0  0  0
 28 32  2  0  0  0  0
M  END
>  <activity>
Active

$$$$
mutag_d135
 OpenBabel01191712022D

 14 14  0  0  0  0  0  0  0  0999 V2000
    0.0000    0.0000    0.0000 C   0  0  0  0  0  0  0  0  0  0  0  0
    0.0000    1.0000    0.0000 C   0  0  0  0  0  0  0  0  0  0  0  0
    0.8660    1.5000    0.0000 C   0  0  0  0  0  0  0  0  0  0  0  0
    1.7321    1.0000    0.0000 C   0  0  0  0  0  0  0  0  0  0  0  0
    1.7321   -0.0000    0.0000 C   0  0  0  0  0  0  0  0  0  0  0  0
    0.8660   -0.5000    0.0000 C   0  0  0  0  0  0  0  0  0  0  0  0
   -0.8660   -0.5000    0.0000 H   0  0  0  0  0  0  0  0  0  0  0  0
    2.5981    1.5000    0.0000 H   0  0  0  0  0  0  0  0  0  0  0  0
    0.8660   -1.5000    0.0000 H   0  0  0  0  0  0  0  0  0  0  0  0
    2.5981   -0.5000    0.0000 N   0  0  0  0  0  0  0  0  0  0  0  0
    2.5981   -1.5000    0.0000 O   0  0  0  0  0  0  0  0  0  0  0  0
    3.4641   -0.0000    0.0000 O   0  0  0  0  0  0  0  0  0  0  0  0
    0.8660    2.5000    0.0000 Cl  0  0  0  0  0  0  0  0  0  0  0  0
   -0.8660    1.5000    0.0000 F   0  0  0  0  0  0  0  0  0  0  0  0
  1  2  2  0  0  0  0
  1  7  1  0  0  0  0
  2  3  1  0  0  0  0
  2 14  1  0  0  0  0
  3  4  2  0  0  0  0
  3 13  1  0  0  0  0
  4  5  1  0  0  0  0
  4  8  1  0  0  0  0
  5  6  2  0  0  0  0
  5 10  1  0  0  0  0
  6  1  1  0  0  0  0
  6  9  1  0  0  0  0
 10 11  2  0  0  0  0
 10 12  2  0  0  0  0
M  END
>  <activity>
Inactive

$$$$
mutag_d136
 OpenBabel01191712022D

 29 32  0  0  0  0  0  0  0  0999 V2000
    3.2595    0.9155    0.0000 C   0  0  0  0  0  0  0  0  0  0  0  0
    3.2526   -0.0287    0.0000 C   0  0  0  0  0  0  0  0  0  0  0  0
    2.4365   -0.4917    0.0000 C   0  0  0  0  0  0  0  0  0  0  0  0
    1.6273   -0.0105    0.0000 C   0  0  0  0  0  0  0  0  0  0  0  0
    1.6321    0.9260    0.0000 C   0  0  0  0  0  0  0  0  0  0  0  0
    2.4482    1.3890    0.0000 C   0  0  0  0  0  0  0  0  0  0  0  0
    4.0749    1.3782    0.0000 H   0  0  0  0  0  0  0  0  0  0  0  0
    4.0610   -0.5035    0.0000 H   0  0  0  0  0  0  0  0  0  0  0  0
    2.4539    2.3265    0.0000 H   0  0  0  0  0  0  0  0  0  0  0  0
    2.4289   -1.4233    0.0000 C   0  0  0  0  0  0  0  0  0  0  0  0
    1.6174   -1.8838    0.0000 C   0  0  0  0  0  0  0  0  0  0  0  0
    0.8044   -1.4177    0.0000 C   0  0  0  0  0  0  0  0  0  0  0  0
    0.8158   -0.4710    0.0000 C   0  0  0  0  0  0  0  0  0  0  0  0
    3.2372   -1.8984    0.0000 H   0  0  0  0  0  0  0  0  0  0  0  0
    1.6153   -2.8213    0.0000 H   0  0  0  0  0  0  0  0  0  0  0  0
    0.0000   -0.0000    0.0000 C   0  0  0  0  0  0  0  0  0  0  0  0
    0.0169    0.9370    0.0000 C   0  0  0  0  0  0  0  0  0  0  0  0
    0.8285    1.3974    0.0000 C   0  0  0  0  0  0  0  0  0  0  0  0
   -0.7889    1.4161    0.0000 H   0  0  0  0  0  0  0  0  0  0  0  0
    0.8353    2.3349    0.0000 H   0  0  0  0  0  0  0  0  0  0  0  0
   -0.0117   -1.8807    0.0000 C   0  0  0  0  0  0  0  0  0  0  0  0
   -0.8108   -1.4068    0.0000 C   0  0  0  0  0  0  0  0  0  0  0  0
   -0.8161   -0.4630    0.0000 C   0  0  0  0  0  0  0  0  0  0  0  0
   -1.6242   -1.8730    0.0000 H   0  0  0  0  0  0  0  0  0  0  0  0
   -1.6282    0.0069    0.0000 O   0  0  0  0  0  0  0  0  0  0  0  0
   -0.0206   -2.8098    0.0000 N   0  0  0  0  0  0  0  0  0  0  0  0
   -0.7195   -3.4220    0.0000 O   0  0  0  0  0  0  0  0  0  0  0  0
    0.8590   -3.1089    0.0000 O   0  0  0  0  0  0  0  0  0  0  0  0
   -2.1134   -0.7961    0.0000 H   0  0  0  0  0  0  0  0  0  0  0  0
  1  2  2  0  0  0  0
  1  7  1  0  0  0  0
  2  3  1  0  0  0  0
  2  8  1  0  0  0  0
  3  4  2  0  0  0  0
  3 10  1  0  0  0  0
  4  5  1  0  0  0  0
  5  6  2  0  0  0  0
  6  1  1  0  0  0  0
  6  9  1  0  0  0  0
 10 11  2  0  0  0  0
 10 14  1  0  0  0  0
 11 12  1  0  0  0  0
 11 15  1  0  0  0  0
 12 13  2  0  0  0  0
 12 21  1  0  0  0  0
 13  4  1  0  0  0  0
 13 16  1  0  0  0  0
 16 17  1  0  0  0  0
 17 18  2  0  0  0  0
 17 19  1  0  0  0  0
 18  5  1  0  0  0  0
 18 20  1  0  0  0  0
 21 22  2  0  0  0  0
 21 26  1  0  0  0  0
 22 23  1  0  0  0  0
 22 24  1  0  0  0  0
 23 16  2  0  0  0  0
 23 25  1  0  0  0  0
 25 29  1  0  0  0  0
 26 27  2  0  0  0  0
 26 28  2  0  0  0  0
M  END
>  <activity>
Active

$$$$
mutag_d137
 OpenBabel01191712022D

 30 33  0  0  0  0  0  0  0  0999 V2000
   -0.0006   -2.8425    0.0000 C   0  0  0  0  0  0  0  0  0  0  0  0
   -0.8213   -2.3687    0.0000 C   0  0  0  0  0  0  0  0  0  0  0  0
   -0.8211   -1.4214    0.0000 C   0  0  0  0  0  0  0  0  0  0  0  0
   -0.0002   -0.9478    0.0000 C   0  0  0  0  0  0  0  0  0  0  0  0
    0.8200   -1.4217    0.0000 C   0  0  0  0  0  0  0  0  0  0  0  0
    0.8198   -2.3690    0.0000 C   0  0  0  0  0  0  0  0  0  0  0  0
   -0.0008   -3.8266    0.0000 H   0  0  0  0  0  0  0  0  0  0  0  0
   -1.6735   -2.8606    0.0000 H   0  0  0  0  0  0  0  0  0  0  0  0
    1.6720   -2.8612    0.0000 H   0  0  0  0  0  0  0  0  0  0  0  0
   -1.6413   -0.9475    0.0000 C   0  0  0  0  0  0  0  0  0  0  0  0
   -1.6411    0.0003    0.0000 C   0  0  0  0  0  0  0  0  0  0  0  0
   -0.8207    0.4738    0.0000 C   0  0  0  0  0  0  0  0  0  0  0  0
    0.0000    0.0000    0.0000 C   0  0  0  0  0  0  0  0  0  0  0  0
   -0.8206    1.4579    0.0000 H   0  0  0  0  0  0  0  0  0  0  0  0
    1.6409   -0.9482    0.0000 C   0  0  0  0  0  0  0  0  0  0  0  0
    1.6411   -0.0003    0.0000 C   0  0  0  0  0  0  0  0  0  0  0  0
    2.4620    0.4732    0.0000 C   0  0  0  0  0  0  0  0  0  0  0  0
    3.2822   -0.0007    0.0000 C   0  0  0  0  0  0  0  0  0  0  0  0
    3.2820   -0.9485    0.0000 C   0  0  0  0  0  0  0  0  0  0  0  0
    2.4616   -1.4220    0.0000 C   0  0  0  0  0  0  0  0  0  0  0  0
    2.4621    1.4572    0.0000 H   0  0  0  0  0  0  0  0  0  0  0  0
    4.1346    0.4912    0.0000 H   0  0  0  0  0  0  0  0  0  0  0  0
    4.1342   -1.4407    0.0000 H   0  0  0  0  0  0  0  0  0  0  0  0
    2.4616   -2.4060    0.0000 H   0  0  0  0  0  0  0  0  0  0  0  0
   -2.4614    0.4741    0.0000 N   0  0  0  0  0  0  0  0  0  0  0  0
   -2.4618   -1.4209    0.0000 N   0  0  0  0  0  0  0  0  0  0  0  0
   -2.6582    1.4007    0.0000 O   0  0  0  0  0  0  0  0  0  0  0  0
   -3.1654   -0.1596    0.0000 O   0  0  0  0  0  0  0  0  0  0  0  0
   -3.3962   -1.2656    0.0000 O   0  0  0  0  0  0  0  0  0  0  0  0
   -2.1291   -2.3079    0.0000 O   0  0  0  0  0  0  0  0  0  0  0  0
  1  2  2  0  0  0  0
  1  7  1  0  0  0  0
  2  3  1  0  0  0  0
  2  8  1  0  0  0  0
  3  4  2  0  0  0  0
  3 10  1  0  0  0  0
  4  5  1  0  0  0  0
  5  6  2  0  0  0  0
  6  1  1  0  0  0  0
  6  9  1  0  0  0  0
 10 11  2  0  0  0  0
 10 26  1  0  0  0  0
 11 12  1  0  0  0  0
 11 25  1  0  0  0  0
 12 13  2  0  0  0  0
 12 14  1  0  0  0  0
 13  4  1  0  0  0  0
 15 16  2  0  0  0  0
 15  5  1  0  0  0  0
 16 17  1  0  0  0  0
 16 13  1  0  0  0  0
 17 18  2  0  0  0  0
 17 21  1  0  0  0  0
 18 19  1  0  0  0  0
 18 22  1  0  0  0  0
 19 20  2  0  0  0  0
 19 23  1  0  0  0  0
 20 15  1  0  0  0  0
 20 24  1  0  0  0  0
 25 27  2  0  0  0  0
 25 28  2  0  0  0  0
 26 29  2  0  0  0  0
 26 30  2  0  0  0  0
M  END
>  <activity>
Active

$$$$
mutag_d138
 OpenBabel01191712022D

 28 29  0  0  0  0  0  0  0  0999 V2000
   -3.2709   -0.5000    0.0000 C   0  0  3  0  0  0  0  0  0  0  0  0
   -2.4049   -1.0000    0.0000 C   0  0  0  0  0  0  0  0  0  0  0  0
   -1.5388   -0.5000    0.0000 C   0  0  3  0  0  0  0  0  0  0  0  0
   -1.5388    0.5000    0.0000 C   0  0  3  0  0  0  0  0  0  0  0  0
   -2.4049    1.0000    0.0000 C   0  0  0  0  0  0  0  0  0  0  0  0
   -3.2709    0.5000    0.0000 C   0  0  0  0  0  0  0  0  0  0  0  0
   -0.5878   -0.8090    0.0000 N   0  0  0  0  0  0  0  0  0  0  0  0
    0.0000    0.0000    0.0000 N   0  0  0  0  0  0  0  0  0  0  0  0
   -0.5878    0.8090    0.0000 C   0  0  0  0  0  0  0  0  0  0  0  0
    1.0000    0.0000    0.0000 C   0  0  0  0  0  0  0  0  0  0  0  0
   -4.1369   -1.0000    0.0000 N   0  0  0  0  0  0  0  0  0  0  0  0
   -5.0029   -0.5000    0.0000 O   0  0  0  0  0  0  0  0  0  0  0  0
   -4.1369   -2.0000    0.0000 O   0  0  0  0  0  0  0  0  0  0  0  0
   -2.4049   -2.0000    0.0000 H   0  0  0  0  0  0  0  0  0  0  0  0
   -2.4049    2.0000    0.0000 H   0  0  0  0  0  0  0  0  0  0  0  0
   -4.1369    1.0000    0.0000 H   0  0  0  0  0  0  0  0  0  0  0  0
   -0.2788    1.7601    0.0000 H   0  0  0  0  0  0  0  0  0  0  0  0
    1.8660    0.5000    0.0000 H   0  0  0  0  0  0  0  0  0  0  0  0
    1.0000    1.0000    0.0000 H   0  0  0  0  0  0  0  0  0  0  0  0
    1.5000   -0.8660    0.0000 H   0  0  0  0  0  0  0  0  0  0  0  0
   -0.2788   -1.7601    0.0000 H   0  0  0  0  0  0  0  0  0  0  0  0
   -2.3442    0.0350    0.0000 H   0  0  0  0  0  0  0  0  0  0  0  0
   -1.4782   -1.5350    0.0000 H   0  0  0  0  0  0  0  0  0  0  0  0
   -2.4655    0.0350    0.0000 H   0  0  0  0  0  0  0  0  0  0  0  0
   -2.4655   -0.0350    0.0000 H   0  0  0  0  0  0  0  0  0  0  0  0
   -3.3315    1.5350    0.0000 H   0  0  0  0  0  0  0  0  0  0  0  0
   -4.1975   -0.0350    0.0000 H   0  0  0  0  0  0  0  0  0  0  0  0
    0.4690    0.9764    0.0000 H   0  0  0  0  0  0  0  0  0  0  0  0
  1  2  1  0  0  0  0
  1 11  1  0  0  0  0
  1 22  1  0  0  0  0
  2  3  1  0  0  0  0
  2 14  1  0  0  0  0
  2 23  1  0  0  0  0
  3  4  1  0  0  0  0
  3  7  1  0  0  0  0
  3 24  1  0  0  0  0
  4  5  1  0  0  0  0
  4  9  1  0  0  0  0
  4 25  1  0  0  0  0
  5  6  1  0  0  0  0
  5 15  1  0  0  0  0
  5 26  1  0  0  0  0
  6  1  1  0  0  0  0
  6 16  1  0  0  0  0
  6 27  1  0  0  0  0
  7  8  1  0  0  0  0
  7 21  1  0  0  0  0
  8 10  1  0  0  0  0
  9  8  1  0  0  0  0
  9 17  1  0  0  0  0
  9 28  1  0  0  0  0
 10 18  1  0  0  0  0
 10 19  1  0  0  0  0
 10 20  1  0  0  0  0
 11 12  2  0  0  0  0
 11 13  2  0  0  0  0
M  END
>  <activity>
Inactive

$$$$
mutag_d139
 OpenBabel01191712022D

 16 16  0  0  0  0  0  0  0  0999 V2000
   -0.0000   -0.0000    0.0000 C   0  0  0  0  0  0  0  0  0  0  0  0
   -0.8660    0.5000    0.0000 C   0  0  0  0  0  0  0  0  0  0  0  0
   -0.8660    1.5000    0.0000 C   0  0  0  0  0  0  0  0  0  0  0  0
   -0.0000    2.0000    0.0000 C   0  0  0  0  0  0  0  0  0  0  0  0
    0.8660    1.5000    0.0000 C   0  0  0  0  0  0  0  0  0  0  0  0
    0.8660    0.5000    0.0000 C   0  0  0  0  0  0  0  0  0  0  0  0
   -0.0000   -1.0000    0.0000 H   0  0  0  0  0  0  0  0  0  0  0  0
   -1.7321    2.0000    0.0000 H   0  0  0  0  0  0  0  0  0  0  0  0
    1.7321    0.0000    0.0000 H   0  0  0  0  0  0  0  0  0  0  0  0
    1.7321    2.0000    0.0000 N   0  0  0  0  0  0  0  0  0  0  0  0
    2.5981    1.5000    0.0000 H   0  0  0  0  0  0  0  0  0  0  0  0
    1.7321    3.0000    0.0000 H   0  0  0  0  0  0  0  0  0  0  0  0
   -0.0000    3.0000    0.0000 N   0  0  0  0  0  0  0  0  0  0  0  0
   -1.7321    0.0000    0.0000 Cl  0  0  0  0  0  0  0  0  0  0  0  0
    0.8660    3.5000    0.0000 O   0  0  0  0  0  0  0  0  0  0  0  0
   -0.8660    3.5000    0.0000 O   0  0  0  0  0  0  0  0  0  0  0  0
  1  2  2  0  0  0  0
  1  7  1  0  0  0  0
  2  3  1  0  0  0  0
  2 14  1  0  0  0  0
  3  4  2  0  0  0  0
  3  8  1  0  0  0  0
  4  5  1  0  0  0  0
  4 13  1  0  0  0  0
  5  6  2  0  0  0  0
  5 10  1  0  0  0  0
  6  1  1  0  0  0  0
  6  9  1  0  0  0  0
 10 11  1  0  0  0  0
 10 12  1  0  0  0  0
 13 15  2  0  0  0  0
 13 16  2  0  0  0  0
M  END
>  <activity>
Inactive

$$$$
mutag_d14
 OpenBabel01191712022D

 20 21  0  0  0  0  0  0  0  0999 V2000
   -1.7321   -0.0000    0.0000 C   0  0  0  0  0  0  0  0  0  0  0  0
   -0.8660   -0.5000    0.0000 C   0  0  0  0  0  0  0  0  0  0  0  0
    0.0000    0.0000    0.0000 C   0  0  0  0  0  0  0  0  0  0  0  0
   -0.0000    1.0000    0.0000 C   0  0  0  0  0  0  0  0  0  0  0  0
   -0.8660    1.5000    0.0000 C   0  0  0  0  0  0  0  0  0  0  0  0
   -1.7321    1.0000    0.0000 C   0  0  0  0  0  0  0  0  0  0  0  0
    0.9511    1.3090    0.0000 C   0  0  0  0  0  0  0  0  0  0  0  0
    1.5388    0.5000    0.0000 N   0  0  0  0  0  0  0  0  0  0  0  0
    0.9511   -0.3090    0.0000 N   0  0  0  0  0  0  0  0  0  0  0  0
    1.2601   -1.2601    0.0000 C   0  0  0  0  0  0  0  0  0  0  0  0
   -2.5981   -0.5000    0.0000 N   0  0  0  0  0  0  0  0  0  0  0  0
   -3.4641   -0.0000    0.0000 O   0  0  0  0  0  0  0  0  0  0  0  0
   -2.5981   -1.5000    0.0000 O   0  0  0  0  0  0  0  0  0  0  0  0
   -0.8660   -1.5000    0.0000 H   0  0  0  0  0  0  0  0  0  0  0  0
   -0.8660    2.5000    0.0000 H   0  0  0  0  0  0  0  0  0  0  0  0
   -2.5981    1.5000    0.0000 H   0  0  0  0  0  0  0  0  0  0  0  0
    1.2601    2.2601    0.0000 H   0  0  0  0  0  0  0  0  0  0  0  0
    2.0032   -1.9292    0.0000 H   0  0  0  0  0  0  0  0  0  0  0  0
    2.2111   -0.9511    0.0000 H   0  0  0  0  0  0  0  0  0  0  0  0
    0.5909   -2.0032    0.0000 H   0  0  0  0  0  0  0  0  0  0  0  0
  1  2  2  0  0  0  0
  1 11  1  0  0  0  0
  2  3  1  0  0  0  0
  2 14  1  0  0  0  0
  3  4  2  0  0  0  0
  4  5  1  0  0  0  0
  4  7  1  0  0  0  0
  5  6  2  0  0  0  0
  5 15  1  0  0  0  0
  6  1  1  0  0  0  0
  6 16  1  0  0  0  0
  7  8  2  0  0  0  0
  7 17  1  0  0  0  0
  8  9  1  0  0  0  0
  9  3  1  0  0  0  0
  9 10  1  0  0  0  0
 10 18  1  0  0  0  0
 10 19  1  0  0  0  0
 10 20  1  0  0  0  0
 11 13  2  0  0  0  0
 12 11  2  0  0  0  0
M  END
>  <activity>
Inactive

$$$$
mutag_d140
 OpenBabel01191712022D

 22 23  0  0  0  0  0  0  0  0999 V2000
   -1.6599    0.9583    0.0000 C   0  0  0  0  0  0  0  0  0  0  0  0
   -0.8299    1.4375    0.0000 C   0  0  0  0  0  0  0  0  0  0  0  0
    0.0000    0.9583    0.0000 C   0  0  0  0  0  0  0  0  0  0  0  0
    0.0000    0.0000    0.0000 C   0  0  0  0  0  0  0  0  0  0  0  0
   -0.8299   -0.4792    0.0000 C   0  0  0  0  0  0  0  0  0  0  0  0
   -1.6599    0.0000    0.0000 C   0  0  0  0  0  0  0  0  0  0  0  0
   -2.4898    1.4375    0.0000 H   0  0  0  0  0  0  0  0  0  0  0  0
   -0.8299    2.3958    0.0000 H   0  0  0  0  0  0  0  0  0  0  0  0
   -2.4898   -0.4792    0.0000 H   0  0  0  0  0  0  0  0  0  0  0  0
    0.8299    1.4375    0.0000 C   0  0  0  0  0  0  0  0  0  0  0  0
    1.6599    0.9583    0.0000 C   0  0  0  0  0  0  0  0  0  0  0  0
    1.6599   -0.0000    0.0000 C   0  0  0  0  0  0  0  0  0  0  0  0
    0.8299   -0.4792    0.0000 C   0  0  0  0  0  0  0  0  0  0  0  0
    0.8299    2.3958    0.0000 H   0  0  0  0  0  0  0  0  0  0  0  0
    2.4898    1.4375    0.0000 H   0  0  0  0  0  0  0  0  0  0  0  0
    2.4898   -0.4792    0.0000 H   0  0  0  0  0  0  0  0  0  0  0  0
    0.8299   -2.3958    0.0000 N   0  0  0  0  0  0  0  0  0  0  0  0
   -0.8299   -1.4375    0.0000 N   0  0  0  0  0  0  0  0  0  0  0  0
   -1.6599   -1.9167    0.0000 O   0  0  0  0  0  0  0  0  0  0  0  0
   -0.0000   -1.9167    0.0000 O   0  0  0  0  0  0  0  0  0  0  0  0
   -0.0000   -2.8750    0.0000 O   0  0  0  0  0  0  0  0  0  0  0  0
    1.6599   -2.8750    0.0000 O   0  0  0  0  0  0  0  0  0  0  0  0
  1  2  2  0  0  0  0
  1  7  1  0  0  0  0
  2  3  1  0  0  0  0
  2  8  1  0  0  0  0
  3  4  2  0  0  0  0
  3 10  1  0  0  0  0
  4  5  1  0  0  0  0
  5  6  2  0  0  0  0
  5 18  1  0  0  0  0
  6  1  1  0  0  0  0
  6  9  1  0  0  0  0
 10 11  2  0  0  0  0
 10 14  1  0  0  0  0
 11 12  1  0  0  0  0
 11 15  1  0  0  0  0
 12 13  2  0  0  0  0
 12 16  1  0  0  0  0
 13  4  1  0  0  0  0
 13 17  1  0  0  0  0
 17 21  2  0  0  0  0
 17 22  2  0  0  0  0
 18 19  2  0  0  0  0
 18 20  2  0  0  0  0
M  END
>  <activity>
Active

$$$$
mutag_d141
 OpenBabel01191712022D

 14 14  0  0  0  0  0  0  0  0999 V2000
    0.0000   -0.0000    0.0000 C   0  0  0  0  0  0  0  0  0  0  0  0
    0.8660   -0.5000    0.0000 C   0  0  0  0  0  0  0  0  0  0  0  0
    0.8660   -1.5000    0.0000 C   0  0  0  0  0  0  0  0  0  0  0  0
    0.0000   -2.0000    0.0000 C   0  0  0  0  0  0  0  0  0  0  0  0
   -0.8660   -1.5000    0.0000 C   0  0  0  0  0  0  0  0  0  0  0  0
   -0.8660   -0.5000    0.0000 C   0  0  0  0  0  0  0  0  0  0  0  0
    0.0000    1.0000    0.0000 H   0  0  0  0  0  0  0  0  0  0  0  0
    1.7321   -0.0000    0.0000 H   0  0  0  0  0  0  0  0  0  0  0  0
   -1.7321   -0.0000    0.0000 H   0  0  0  0  0  0  0  0  0  0  0  0
   -1.7321   -2.0000    0.0000 N   0  0  0  0  0  0  0  0  0  0  0  0
   -0.0000   -3.0000    0.0000 Cl  0  0  0  0  0  0  0  0  0  0  0  0
    1.7321   -2.0000    0.0000 Cl  0  0  0  0  0  0  0  0  0  0  0  0
   -2.5981   -1.5000    0.0000 O   0  0  0  0  0  0  0  0  0  0  0  0
   -1.7321   -3.0000    0.0000 O   0  0  0  0  0  0  0  0  0  0  0  0
  1  2  2  0  0  0  0
  1  7  1  0  0  0  0
  2  3  1  0  0  0  0
  2  8  1  0  0  0  0
  3  4  2  0  0  0  0
  3 12  1  0  0  0  0
  4  5  1  0  0  0  0
  4 11  1  0  0  0  0
  5  6  2  0  0  0  0
  5 10  1  0  0  0  0
  6  1  1  0  0  0  0
  6  9  1  0  0  0  0
 10 13  2  0  0  0  0
 10 14  2  0  0  0  0
M  END
>  <activity>
Inactive

$$$$
mutag_d142
 OpenBabel01191712022D

 24 26  0  0  0  0  0  0  0  0999 V2000
   -3.4641    1.0000    0.0000 C   0  0  0  0  0  0  0  0  0  0  0  0
   -2.5981    1.5000    0.0000 C   0  0  0  0  0  0  0  0  0  0  0  0
   -1.7321    1.0000    0.0000 C   0  0  0  0  0  0  0  0  0  0  0  0
   -1.7321    0.0000    0.0000 C   0  0  0  0  0  0  0  0  0  0  0  0
   -2.5981   -0.5000    0.0000 C   0  0  0  0  0  0  0  0  0  0  0  0
   -3.4641    0.0000    0.0000 C   0  0  0  0  0  0  0  0  0  0  0  0
   -2.5981    2.5000    0.0000 H   0  0  0  0  0  0  0  0  0  0  0  0
   -2.5981   -1.5000    0.0000 H   0  0  0  0  0  0  0  0  0  0  0  0
   -0.8660    1.5000    0.0000 O   0  0  0  0  0  0  0  0  0  0  0  0
    0.0000    1.0000    0.0000 C   0  0  0  0  0  0  0  0  0  0  0  0
    0.0000    0.0000    0.0000 C   0  0  0  0  0  0  0  0  0  0  0  0
   -0.8660   -0.5000    0.0000 O   0  0  0  0  0  0  0  0  0  0  0  0
    0.8660    1.5000    0.0000 C   0  0  0  0  0  0  0  0  0  0  0  0
    1.7321    1.0000    0.0000 C   0  0  0  0  0  0  0  0  0  0  0  0
    1.7321   -0.0000    0.0000 C   0  0  0  0  0  0  0  0  0  0  0  0
    0.8660   -0.5000    0.0000 C   0  0  0  0  0  0  0  0  0  0  0  0
    0.8660    2.5000    0.0000 H   0  0  0  0  0  0  0  0  0  0  0  0
    0.8660   -1.5000    0.0000 H   0  0  0  0  0  0  0  0  0  0  0  0
   -4.3301   -0.5000    0.0000 N   0  0  0  0  0  0  0  0  0  0  0  0
   -5.1962   -0.0000    0.0000 O   0  0  0  0  0  0  0  0  0  0  0  0
   -4.3301   -1.5000    0.0000 O   0  0  0  0  0  0  0  0  0  0  0  0
    2.5981   -0.5000    0.0000 Cl  0  0  0  0  0  0  0  0  0  0  0  0
    2.5981    1.5000    0.0000 Cl  0  0  0  0  0  0  0  0  0  0  0  0
   -4.3301    1.5000    0.0000 Cl  0  0  0  0  0  0  0  0  0  0  0  0
  1  2  2  0  0  0  0
  1 24  1  0  0  0  0
  2  3  1  0  0  0  0
  2  7  1  0  0  0  0
  3  4  2  0  0  0  0
  3  9  1  0  0  0  0
  4  5  1  0  0  0  0
  5  6  2  0  0  0  0
  5  8  1  0  0  0  0
  6  1  1  0  0  0  0
  6 19  1  0  0  0  0
  9 10  1  0  0  0  0
 10 11  2  0  0  0  0
 10 13  1  0  0  0  0
 11 12  1  0  0  0  0
 12  4  1  0  0  0  0
 13 14  2  0  0  0  0
 13 17  1  0  0  0  0
 14 15  1  0  0  0  0
 14 23  1  0  0  0  0
 15 16  2  0  0  0  0
 15 22  1  0  0  0  0
 16 11  1  0  0  0  0
 16 18  1  0  0  0  0
 19 20  2  0  0  0  0
 19 21  2  0  0  0  0
M  END
>  <activity>
Inactive

$$$$
mutag_d143
 OpenBabel01191712022D

 25 26  0  0  0  0  0  0  0  0999 V2000
   -3.3358   -1.9259    0.0000 C   0  0  0  0  0  0  0  0  0  0  0  0
   -4.1698   -1.4444    0.0000 C   0  0  0  0  0  0  0  0  0  0  0  0
   -4.1698   -0.4815    0.0000 C   0  0  0  0  0  0  0  0  0  0  0  0
   -3.3358   -0.0000    0.0000 C   0  0  0  0  0  0  0  0  0  0  0  0
   -2.5019   -0.4815    0.0000 C   0  0  0  0  0  0  0  0  0  0  0  0
   -2.5019   -1.4444    0.0000 C   0  0  0  0  0  0  0  0  0  0  0  0
   -3.3358   -2.8889    0.0000 H   0  0  0  0  0  0  0  0  0  0  0  0
   -5.0037   -1.9259    0.0000 H   0  0  0  0  0  0  0  0  0  0  0  0
   -5.0037   -0.0000    0.0000 H   0  0  0  0  0  0  0  0  0  0  0  0
   -1.6679   -1.9259    0.0000 H   0  0  0  0  0  0  0  0  0  0  0  0
   -0.8340    0.4815    0.0000 O   0  0  0  0  0  0  0  0  0  0  0  0
   -0.0000   -0.0000    0.0000 C   0  0  0  0  0  0  0  0  0  0  0  0
    0.8340    0.4815    0.0000 C   0  0  0  0  0  0  0  0  0  0  0  0
    1.6679    0.0000    0.0000 C   0  0  0  0  0  0  0  0  0  0  0  0
    1.6679   -0.9630    0.0000 C   0  0  0  0  0  0  0  0  0  0  0  0
    0.8340   -1.4444    0.0000 C   0  0  0  0  0  0  0  0  0  0  0  0
    0.0000   -0.9630    0.0000 C   0  0  0  0  0  0  0  0  0  0  0  0
    0.8340    1.4444    0.0000 H   0  0  0  0  0  0  0  0  0  0  0  0
    2.5019    0.4815    0.0000 H   0  0  0  0  0  0  0  0  0  0  0  0
    2.5019   -1.4444    0.0000 H   0  0  0  0  0  0  0  0  0  0  0  0
    0.8340   -2.4074    0.0000 H   0  0  0  0  0  0  0  0  0  0  0  0
   -0.8340   -1.4444    0.0000 H   0  0  0  0  0  0  0  0  0  0  0  0
   -3.3358    0.9630    0.0000 N   0  0  0  0  0  0  0  0  0  0  0  0
   -2.5019    1.4444    0.0000 O   0  0  0  0  0  0  0  0  0  0  0  0
   -4.1698    1.4444    0.0000 O   0  0  0  0  0  0  0  0  0  0  0  0
  1  2  2  0  0  0  0
  1  7  1  0  0  0  0
  2  3  1  0  0  0  0
  2  8  1  0  0  0  0
  3  4  2  0  0  0  0
  3  9  1  0  0  0  0
  4  5  1  0  0  0  0
  4 23  1  0  0  0  0
  5  6  2  0  0  0  0
  5 11  1  0  0  0  0
  6  1  1  0  0  0  0
  6 10  1  0  0  0  0
 11 12  1  0  0  0  0
 12 13  2  0  0  0  0
 13 14  1  0  0  0  0
 13 18  1  0  0  0  0
 14 15  2  0  0  0  0
 14 19  1  0  0  0  0
 15 16  1  0  0  0  0
 15 20  1  0  0  0  0
 16 17  2  0  0  0  0
 16 21  1  0  0  0  0
 17 12  1  0  0  0  0
 17 22  1  0  0  0  0
 23 24  2  0  0  0  0
 23 25  2  0  0  0  0
M  END
>  <activity>
Inactive

$$$$
mutag_d144
 OpenBabel01191712022D

 14 14  0  0  0  0  0  0  0  0999 V2000
   -0.0000   -0.0000    0.0000 C   0  0  0  0  0  0  0  0  0  0  0  0
   -0.8660    0.5000    0.0000 C   0  0  0  0  0  0  0  0  0  0  0  0
   -0.8660    1.5000    0.0000 C   0  0  0  0  0  0  0  0  0  0  0  0
   -0.0000    2.0000    0.0000 C   0  0  0  0  0  0  0  0  0  0  0  0
    0.8660    1.5000    0.0000 C   0  0  0  0  0  0  0  0  0  0  0  0
    0.8660    0.5000    0.0000 C   0  0  0  0  0  0  0  0  0  0  0  0
   -1.7321   -0.0000    0.0000 H   0  0  0  0  0  0  0  0  0  0  0  0
   -1.7321    2.0000    0.0000 H   0  0  0  0  0  0  0  0  0  0  0  0
    1.7321    0.0000    0.0000 H   0  0  0  0  0  0  0  0  0  0  0  0
    1.7321    2.0000    0.0000 N   0  0  0  0  0  0  0  0  0  0  0  0
    0.0000    3.0000    0.0000 Cl  0  0  0  0  0  0  0  0  0  0  0  0
   -0.0000   -1.0000    0.0000 Cl  0  0  0  0  0  0  0  0  0  0  0  0
    2.5981    1.5000    0.0000 O   0  0  0  0  0  0  0  0  0  0  0  0
    1.7321    3.0000    0.0000 O   0  0  0  0  0  0  0  0  0  0  0  0
  1  2  2  0  0  0  0
  1 12  1  0  0  0  0
  2  3  1  0  0  0  0
  2  7  1  0  0  0  0
  3  4  2  0  0  0  0
  3  8  1  0  0  0  0
  4  5  1  0  0  0  0
  4 11  1  0  0  0  0
  5  6  2  0  0  0  0
  5 10  1  0  0  0  0
  6  1  1  0  0  0  0
  6  9  1  0  0  0  0
 10 13  2  0  0  0  0
 10 14  2  0  0  0  0
M  END
>  <activity>
Inactive

$$$$
mutag_d145
 OpenBabel01191712022D

 26 27  0  0  0  0  0  0  0  0999 V2000
    2.5981    1.5000    0.0000 C   0  0  0  0  0  0  0  0  0  0  0  0
    2.5981    0.5000    0.0000 C   0  0  0  0  0  0  0  0  0  0  0  0
    1.7321   -0.0000    0.0000 C   0  0  0  0  0  0  0  0  0  0  0  0
    0.8660    0.5000    0.0000 C   0  0  0  0  0  0  0  0  0  0  0  0
    0.8660    1.5000    0.0000 C   0  0  0  0  0  0  0  0  0  0  0  0
    1.7321    2.0000    0.0000 C   0  0  0  0  0  0  0  0  0  0  0  0
    3.4641   -0.0000    0.0000 H   0  0  0  0  0  0  0  0  0  0  0  0
    1.7321   -1.0000    0.0000 H   0  0  0  0  0  0  0  0  0  0  0  0
    0.0000    2.0000    0.0000 H   0  0  0  0  0  0  0  0  0  0  0  0
    1.7321    3.0000    0.0000 H   0  0  0  0  0  0  0  0  0  0  0  0
    0.0000   -0.0000    0.0000 C   0  0  0  0  0  0  0  0  0  0  0  0
   -0.0000   -1.0000    0.0000 C   0  0  0  0  0  0  0  0  0  0  0  0
   -0.8660   -1.5000    0.0000 C   0  0  0  0  0  0  0  0  0  0  0  0
   -1.7321   -1.0000    0.0000 C   0  0  0  0  0  0  0  0  0  0  0  0
   -1.7321    0.0000    0.0000 C   0  0  0  0  0  0  0  0  0  0  0  0
   -0.8660    0.5000    0.0000 C   0  0  0  0  0  0  0  0  0  0  0  0
    0.8660   -1.5000    0.0000 H   0  0  0  0  0  0  0  0  0  0  0  0
   -0.8660   -2.5000    0.0000 H   0  0  0  0  0  0  0  0  0  0  0  0
   -2.5981   -1.5000    0.0000 H   0  0  0  0  0  0  0  0  0  0  0  0
   -0.8660    1.5000    0.0000 H   0  0  0  0  0  0  0  0  0  0  0  0
   -2.5981    0.5000    0.0000 N   0  0  0  0  0  0  0  0  0  0  0  0
    3.4641    2.0000    0.0000 N   0  0  0  0  0  0  0  0  0  0  0  0
    4.3301    1.5000    0.0000 O   0  0  0  0  0  0  0  0  0  0  0  0
    3.4641    3.0000    0.0000 O   0  0  0  0  0  0  0  0  0  0  0  0
   -2.5981    1.5000    0.0000 H   0  0  0  0  0  0  0  0  0  0  0  0
   -3.4641    0.0000    0.0000 H   0  0  0  0  0  0  0  0  0  0  0  0
  1  2  2  0  0  0  0
  1 22  1  0  0  0  0
  2  3  1  0  0  0  0
  2  7  1  0  0  0  0
  3  4  2  0  0  0  0
  3  8  1  0  0  0  0
  4  5  1  0  0  0  0
  4 11  1  0  0  0  0
  5  6  2  0  0  0  0
  5  9  1  0  0  0  0
  6  1  1  0  0  0  0
  6 10  1  0  0  0  0
 11 12  2  0  0  0  0
 12 13  1  0  0  0  0
 12 17  1  0  0  0  0
 13 14  2  0  0  0  0
 13 18  1  0  0  0  0
 14 15  1  0  0  0  0
 14 19  1  0  0  0  0
 15 16  2  0  0  0  0
 15 21  1  0  0  0  0
 16 11  1  0  0  0  0
 16 20  1  0  0  0  0
 21 25  1  0  0  0  0
 21 26  1  0  0  0  0
 22 23  2  0  0  0  0
 22 24  2  0  0  0  0
M  END
>  <activity>
Active

$$$$
mutag_d146
 OpenBabel01191712022D

 26 27  0  0  0  0  0  0  0  0999 V2000
    2.5981    1.5000    0.0000 C   0  0  0  0  0  0  0  0  0  0  0  0
    2.5981    0.5000    0.0000 C   0  0  0  0  0  0  0  0  0  0  0  0
    1.7321   -0.0000    0.0000 C   0  0  0  0  0  0  0  0  0  0  0  0
    0.8660    0.5000    0.0000 C   0  0  0  0  0  0  0  0  0  0  0  0
    0.8660    1.5000    0.0000 C   0  0  0  0  0  0  0  0  0  0  0  0
    1.7321    2.0000    0.0000 C   0  0  0  0  0  0  0  0  0  0  0  0
    3.4641   -0.0000    0.0000 H   0  0  0  0  0  0  0  0  0  0  0  0
    1.7321   -1.0000    0.0000 H   0  0  0  0  0  0  0  0  0  0  0  0
    0.0000    2.0000    0.0000 H   0  0  0  0  0  0  0  0  0  0  0  0
    1.7321    3.0000    0.0000 H   0  0  0  0  0  0  0  0  0  0  0  0
    0.0000   -0.0000    0.0000 C   0  0  0  0  0  0  0  0  0  0  0  0
   -0.0000   -1.0000    0.0000 C   0  0  0  0  0  0  0  0  0  0  0  0
   -0.8660   -1.5000    0.0000 C   0  0  0  0  0  0  0  0  0  0  0  0
   -1.7321   -1.0000    0.0000 C   0  0  0  0  0  0  0  0  0  0  0  0
   -1.7321    0.0000    0.0000 C   0  0  0  0  0  0  0  0  0  0  0  0
   -0.8660    0.5000    0.0000 C   0  0  0  0  0  0  0  0  0  0  0  0
    0.8660   -1.5000    0.0000 H   0  0  0  0  0  0  0  0  0  0  0  0
   -0.8660   -2.5000    0.0000 H   0  0  0  0  0  0  0  0  0  0  0  0
   -0.8660    1.5000    0.0000 H   0  0  0  0  0  0  0  0  0  0  0  0
    3.4641    2.0000    0.0000 N   0  0  0  0  0  0  0  0  0  0  0  0
    4.3301    1.5000    0.0000 O   0  0  0  0  0  0  0  0  0  0  0  0
    3.4641    3.0000    0.0000 O   0  0  0  0  0  0  0  0  0  0  0  0
   -2.5981    0.5000    0.0000 H   0  0  0  0  0  0  0  0  0  0  0  0
   -2.5981   -1.5000    0.0000 N   0  0  0  0  0  0  0  0  0  0  0  0
   -3.4641   -1.0000    0.0000 H   0  0  0  0  0  0  0  0  0  0  0  0
   -2.5981   -2.5000    0.0000 H   0  0  0  0  0  0  0  0  0  0  0  0
  1  2  2  0  0  0  0
  1 20  1  0  0  0  0
  2  3  1  0  0  0  0
  2  7  1  0  0  0  0
  3  4  2  0  0  0  0
  3  8  1  0  0  0  0
  4  5  1  0  0  0  0
  4 11  1  0  0  0  0
  5  6  2  0  0  0  0
  5  9  1  0  0  0  0
  6  1  1  0  0  0  0
  6 10  1  0  0  0  0
 11 12  2  0  0  0  0
 12 13  1  0  0  0  0
 12 17  1  0  0  0  0
 13 14  2  0  0  0  0
 13 18  1  0  0  0  0
 14 15  1  0  0  0  0
 14 24  1  0  0  0  0
 15 16  2  0  0  0  0
 15 23  1  0  0  0  0
 16 11  1  0  0  0  0
 16 19  1  0  0  0  0
 20 21  2  0  0  0  0
 20 22  2  0  0  0  0
 24 25  1  0  0  0  0
 24 26  1  0  0  0  0
M  END
>  <activity>
Active

$$$$
mutag_d147
 OpenBabel01191712022D

 20 21  0  0  0  0  0  0  0  0999 V2000
   -3.2709   -0.5000    0.0000 C   0  0  0  0  0  0  0  0  0  0  0  0
   -2.4049   -1.0000    0.0000 C   0  0  0  0  0  0  0  0  0  0  0  0
   -1.5388   -0.5000    0.0000 C   0  0  0  0  0  0  0  0  0  0  0  0
   -1.5388    0.5000    0.0000 C   0  0  0  0  0  0  0  0  0  0  0  0
   -2.4049    1.0000    0.0000 C   0  0  0  0  0  0  0  0  0  0  0  0
   -3.2709    0.5000    0.0000 C   0  0  0  0  0  0  0  0  0  0  0  0
   -0.5878   -0.8090    0.0000 N   0  0  0  0  0  0  0  0  0  0  0  0
    0.0000    0.0000    0.0000 C   0  0  0  0  0  0  0  0  0  0  0  0
   -0.5878    0.8090    0.0000 N   0  0  0  0  0  0  0  0  0  0  0  0
    1.0000    0.0000    0.0000 C   0  0  0  0  0  0  0  0  0  0  0  0
   -4.1369    1.0000    0.0000 N   0  0  0  0  0  0  0  0  0  0  0  0
   -4.1369    2.0000    0.0000 O   0  0  0  0  0  0  0  0  0  0  0  0
   -5.0029    0.5000    0.0000 O   0  0  0  0  0  0  0  0  0  0  0  0
   -4.1369   -1.0000    0.0000 H   0  0  0  0  0  0  0  0  0  0  0  0
   -2.4049   -2.0000    0.0000 H   0  0  0  0  0  0  0  0  0  0  0  0
   -2.4049    2.0000    0.0000 H   0  0  0  0  0  0  0  0  0  0  0  0
    1.8660    0.5000    0.0000 H   0  0  0  0  0  0  0  0  0  0  0  0
    1.0000    1.0000    0.0000 H   0  0  0  0  0  0  0  0  0  0  0  0
    1.5000   -0.8660    0.0000 H   0  0  0  0  0  0  0  0  0  0  0  0
   -0.2836   -1.7453    0.0000 H   0  0  0  0  0  0  0  0  0  0  0  0
  1  2  2  0  0  0  0
  1 14  1  0  0  0  0
  2  3  1  0  0  0  0
  2 15  1  0  0  0  0
  3  4  2  0  0  0  0
  3  7  1  0  0  0  0
  4  5  1  0  0  0  0
  4  9  1  0  0  0  0
  5  6  2  0  0  0  0
  5 16  1  0  0  0  0
  6  1  1  0  0  0  0
  6 11  1  0  0  0  0
  7  8  1  0  0  0  0
  7 20  1  0  0  0  0
  8 10  1  0  0  0  0
  9  8  2  0  0  0  0
 10 17  1  0  0  0  0
 10 18  1  0  0  0  0
 10 19  1  0  0  0  0
 11 12  2  0  0  0  0
 11 13  2  0  0  0  0
M  END
>  <activity>
Inactive

$$$$
mutag_d148
 OpenBabel01191712022D

 22 24  0  0  0  0  0  0  0  0999 V2000
   -2.4075    2.3158    0.0000 C   0  0  0  0  0  0  0  0  0  0  0  0
   -1.6051    2.7791    0.0000 C   0  0  0  0  0  0  0  0  0  0  0  0
   -0.8029    2.3161    0.0000 C   0  0  0  0  0  0  0  0  0  0  0  0
   -0.8027    1.3897    0.0000 C   0  0  0  0  0  0  0  0  0  0  0  0
   -1.6048    0.9261    0.0000 C   0  0  0  0  0  0  0  0  0  0  0  0
   -2.4073    1.3894    0.0000 C   0  0  0  0  0  0  0  0  0  0  0  0
   -0.0005    2.7794    0.0000 C   0  0  0  0  0  0  0  0  0  0  0  0
    0.8020    2.3164    0.0000 C   0  0  0  0  0  0  0  0  0  0  0  0
    0.8022    1.3900    0.0000 C   0  0  0  0  0  0  0  0  0  0  0  0
   -0.0002    0.9264    0.0000 C   0  0  0  0  0  0  0  0  0  0  0  0
   -1.6046   -0.0003    0.0000 C   0  0  0  0  0  0  0  0  0  0  0  0
    0.0000    0.0000    0.0000 C   0  0  0  0  0  0  0  0  0  0  0  0
   -3.2519    2.8031    0.0000 H   0  0  0  0  0  0  0  0  0  0  0  0
   -1.6052    3.7541    0.0000 H   0  0  0  0  0  0  0  0  0  0  0  0
   -3.2516    0.9019    0.0000 H   0  0  0  0  0  0  0  0  0  0  0  0
   -0.0007    3.7544    0.0000 H   0  0  0  0  0  0  0  0  0  0  0  0
    1.6462    2.8041    0.0000 H   0  0  0  0  0  0  0  0  0  0  0  0
   -2.2939   -0.6898    0.0000 H   0  0  0  0  0  0  0  0  0  0  0  0
    0.6895   -0.6892    0.0000 H   0  0  0  0  0  0  0  0  0  0  0  0
    1.6046    0.9271    0.0000 N   0  0  0  0  0  0  0  0  0  0  0  0
    1.6603    0.0024    0.0000 O   0  0  0  0  0  0  0  0  0  0  0  0
    2.3776    1.4376    0.0000 O   0  0  0  0  0  0  0  0  0  0  0  0
  1  2  2  0  0  0  0
  1 13  1  0  0  0  0
  2  3  1  0  0  0  0
  2 14  1  0  0  0  0
  3  4  2  0  0  0  0
  3  7  1  0  0  0  0
  4  5  1  0  0  0  0
  5  6  2  0  0  0  0
  5 11  1  0  0  0  0
  6  1  1  0  0  0  0
  6 15  1  0  0  0  0
  7  8  2  0  0  0  0
  7 16  1  0  0  0  0
  8  9  1  0  0  0  0
  8 17  1  0  0  0  0
  9 10  2  0  0  0  0
  9 20  1  0  0  0  0
 10  4  1  0  0  0  0
 10 12  1  0  0  0  0
 11 12  2  0  0  0  0
 11 18  1  0  0  0  0
 12 19  1  0  0  0  0
 20 21  2  0  0  0  0
 20 22  2  0  0  0  0
M  END
>  <activity>
Active

$$$$
mutag_d149
 OpenBabel01191712022D

 28 30  0  0  0  0  0  0  0  0999 V2000
    3.4641   -1.0000    0.0000 C   0  0  0  0  0  0  0  0  0  0  0  0
    2.5981   -1.5000    0.0000 C   0  0  0  0  0  0  0  0  0  0  0  0
    1.7321   -1.0000    0.0000 C   0  0  0  0  0  0  0  0  0  0  0  0
    1.7321   -0.0000    0.0000 C   0  0  0  0  0  0  0  0  0  0  0  0
    2.5981    0.5000    0.0000 C   0  0  0  0  0  0  0  0  0  0  0  0
    3.4641   -0.0000    0.0000 C   0  0  0  0  0  0  0  0  0  0  0  0
    2.5981   -2.5000    0.0000 H   0  0  0  0  0  0  0  0  0  0  0  0
    2.5981    1.5000    0.0000 H   0  0  0  0  0  0  0  0  0  0  0  0
    4.3301    0.5000    0.0000 H   0  0  0  0  0  0  0  0  0  0  0  0
    0.8660   -1.5000    0.0000 N   0  0  0  0  0  0  0  0  0  0  0  0
   -0.0000   -1.0000    0.0000 C   0  0  0  0  0  0  0  0  0  0  0  0
    0.0000   -0.0000    0.0000 C   0  0  0  0  0  0  0  0  0  0  0  0
    0.8660    0.5000    0.0000 N   0  0  0  0  0  0  0  0  0  0  0  0
   -0.8660   -1.5000    0.0000 C   0  0  0  0  0  0  0  0  0  0  0  0
   -1.7321   -1.0000    0.0000 C   0  0  0  0  0  0  0  0  0  0  0  0
   -1.7321    0.0000    0.0000 C   0  0  0  0  0  0  0  0  0  0  0  0
   -0.8660    0.5000    0.0000 C   0  0  0  0  0  0  0  0  0  0  0  0
   -0.8660   -2.5000    0.0000 H   0  0  0  0  0  0  0  0  0  0  0  0
   -2.5981   -1.5000    0.0000 H   0  0  0  0  0  0  0  0  0  0  0  0
   -0.8660    1.5000    0.0000 H   0  0  0  0  0  0  0  0  0  0  0  0
    0.8660    1.5000    0.0000 H   0  0  0  0  0  0  0  0  0  0  0  0
    0.8660   -2.5000    0.0000 H   0  0  0  0  0  0  0  0  0  0  0  0
   -2.5981    0.5000    0.0000 N   0  0  0  0  0  0  0  0  0  0  0  0
    4.3301   -1.5000    0.0000 N   0  0  0  0  0  0  0  0  0  0  0  0
   -2.5981    1.5000    0.0000 O   0  0  0  0  0  0  0  0  0  0  0  0
   -3.4641    0.0000    0.0000 O   0  0  0  0  0  0  0  0  0  0  0  0
    4.3301   -2.5000    0.0000 O   0  0  0  0  0  0  0  0  0  0  0  0
    5.1962   -1.0000    0.0000 O   0  0  0  0  0  0  0  0  0  0  0  0
  1  2  2  0  0  0  0
  1 24  1  0  0  0  0
  2  3  1  0  0  0  0
  2  7  1  0  0  0  0
  3  4  2  0  0  0  0
  3 10  1  0  0  0  0
  4  5  1  0  0  0  0
  5  6  2  0  0  0  0
  5  8  1  0  0  0  0
  6  1  1  0  0  0  0
  6  9  1  0  0  0  0
 10 11  1  0  0  0  0
 10 22  1  0  0  0  0
 11 12  2  0  0  0  0
 11 14  1  0  0  0  0
 12 13  1  0  0  0  0
 13  4  1  0  0  0  0
 13 21  1  0  0  0  0
 14 15  2  0  0  0  0
 14 18  1  0  0  0  0
 15 16  1  0  0  0  0
 15 19  1  0  0  0  0
 16 17  2  0  0  0  0
 16 23  1  0  0  0  0
 17 12  1  0  0  0  0
 17 20  1  0  0  0  0
 23 25  2  0  0  0  0
 23 26  2  0  0  0  0
 24 27  2  0  0  0  0
 24 28  2  0  0  0  0
M  END
>  <activity>
Active

$$$$
mutag_d15
 OpenBabel01191712022D

 28 31  0  0  0  0  0  0  0  0999 V2000
    3.2496    0.9127    0.0000 C   0  0  0  0  0  0  0  0  0  0  0  0
    3.2427   -0.0286    0.0000 C   0  0  0  0  0  0  0  0  0  0  0  0
    2.4291   -0.4902    0.0000 C   0  0  0  0  0  0  0  0  0  0  0  0
    1.6224   -0.0105    0.0000 C   0  0  0  0  0  0  0  0  0  0  0  0
    1.6272    0.9232    0.0000 C   0  0  0  0  0  0  0  0  0  0  0  0
    2.4407    1.3848    0.0000 C   0  0  0  0  0  0  0  0  0  0  0  0
    4.0625    1.3740    0.0000 H   0  0  0  0  0  0  0  0  0  0  0  0
    4.0486   -0.5019    0.0000 H   0  0  0  0  0  0  0  0  0  0  0  0
    2.4465    2.3195    0.0000 H   0  0  0  0  0  0  0  0  0  0  0  0
    0.8133   -0.4695    0.0000 C   0  0  0  0  0  0  0  0  0  0  0  0
    0.0000   -0.0000    0.0000 C   0  0  0  0  0  0  0  0  0  0  0  0
    0.0169    0.9341    0.0000 C   0  0  0  0  0  0  0  0  0  0  0  0
    0.8260    1.3932    0.0000 C   0  0  0  0  0  0  0  0  0  0  0  0
   -0.7865    1.4118    0.0000 H   0  0  0  0  0  0  0  0  0  0  0  0
    0.8327    2.3278    0.0000 H   0  0  0  0  0  0  0  0  0  0  0  0
    2.4215   -1.4190    0.0000 C   0  0  0  0  0  0  0  0  0  0  0  0
    1.6124   -1.8781    0.0000 C   0  0  0  0  0  0  0  0  0  0  0  0
    0.8019   -1.4134    0.0000 C   0  0  0  0  0  0  0  0  0  0  0  0
    3.2273   -1.8927    0.0000 H   0  0  0  0  0  0  0  0  0  0  0  0
    1.6103   -2.8128    0.0000 H   0  0  0  0  0  0  0  0  0  0  0  0
   -0.0117   -1.8750    0.0000 C   0  0  0  0  0  0  0  0  0  0  0  0
   -0.8084   -1.4025    0.0000 C   0  0  0  0  0  0  0  0  0  0  0  0
   -0.8136   -0.4616    0.0000 C   0  0  0  0  0  0  0  0  0  0  0  0
   -0.0138   -2.8097    0.0000 H   0  0  0  0  0  0  0  0  0  0  0  0
   -1.6192   -1.8673    0.0000 H   0  0  0  0  0  0  0  0  0  0  0  0
   -1.6232    0.0069    0.0000 N   0  0  0  0  0  0  0  0  0  0  0  0
   -2.0746    0.8262    0.0000 O   0  0  0  0  0  0  0  0  0  0  0  0
   -2.1070   -0.7937    0.0000 O   0  0  0  0  0  0  0  0  0  0  0  0
  1  2  2  0  0  0  0
  1  7  1  0  0  0  0
  2  3  1  0  0  0  0
  2  8  1  0  0  0  0
  3  4  2  0  0  0  0
  3 16  1  0  0  0  0
  4  5  1  0  0  0  0
  4 10  1  0  0  0  0
  5  6  2  0  0  0  0
  6  1  1  0  0  0  0
  6  9  1  0  0  0  0
 10 11  2  0  0  0  0
 11 12  1  0  0  0  0
 12 13  2  0  0  0  0
 12 14  1  0  0  0  0
 13  5  1  0  0  0  0
 13 15  1  0  0  0  0
 16 17  2  0  0  0  0
 16 19  1  0  0  0  0
 17 18  1  0  0  0  0
 17 20  1  0  0  0  0
 18 10  1  0  0  0  0
 18 21  2  0  0  0  0
 21 22  1  0  0  0  0
 21 24  1  0  0  0  0
 22 23  2  0  0  0  0
 22 25  1  0  0  0  0
 23 11  1  0  0  0  0
 26 23  1  0  0  0  0
 26 27  2  0  0  0  0
 26 28  2  0  0  0  0
M  END
>  <activity>
Active

$$$$
mutag_d150
 OpenBabel01191712022D

 21 21  0  0  0  0  0  0  0  0999 V2000
    0.0000   -0.0000    0.0000 C   0  0  0  0  0  0  0  0  0  0  0  0
   -1.0000   -0.0000    0.0000 C   0  0  0  0  0  0  0  0  0  0  0  0
   -1.3090    0.9511    0.0000 N   0  0  0  0  0  0  0  0  0  0  0  0
   -0.5000    1.5388    0.0000 C   0  0  0  0  0  0  0  0  0  0  0  0
    0.3090    0.9511    0.0000 N   0  0  0  0  0  0  0  0  0  0  0  0
    0.5878   -0.8090    0.0000 N   0  0  0  0  0  0  0  0  0  0  0  0
    0.1810   -1.7226    0.0000 O   0  0  0  0  0  0  0  0  0  0  0  0
    1.5823   -0.7045    0.0000 O   0  0  0  0  0  0  0  0  0  0  0  0
    1.2601    1.2601    0.0000 C   0  0  0  0  0  0  0  0  0  0  0  0
    2.0032    0.5909    0.0000 C   0  0  0  0  0  0  0  0  0  0  0  0
    2.9543    0.9000    0.0000 O   0  0  0  0  0  0  0  0  0  0  0  0
   -0.5000    2.5388    0.0000 C   0  0  0  0  0  0  0  0  0  0  0  0
   -1.5878   -0.8090    0.0000 H   0  0  0  0  0  0  0  0  0  0  0  0
    1.9292    2.0032    0.0000 H   0  0  0  0  0  0  0  0  0  0  0  0
    0.9511    2.2111    0.0000 H   0  0  0  0  0  0  0  0  0  0  0  0
    2.3122   -0.3601    0.0000 H   0  0  0  0  0  0  0  0  0  0  0  0
    1.3341   -0.1522    0.0000 H   0  0  0  0  0  0  0  0  0  0  0  0
    3.6974    0.2308    0.0000 H   0  0  0  0  0  0  0  0  0  0  0  0
   -1.0000    3.4049    0.0000 H   0  0  0  0  0  0  0  0  0  0  0  0
   -1.5000    2.5388    0.0000 H   0  0  0  0  0  0  0  0  0  0  0  0
    0.3660    3.0388    0.0000 H   0  0  0  0  0  0  0  0  0  0  0  0
  1  2  2  0  0  0  0
  1  6  1  0  0  0  0
  2  3  1  0  0  0  0
  2 13  1  0  0  0  0
  3  4  2  0  0  0  0
  4  5  1  0  0  0  0
  4 12  1  0  0  0  0
  5  1  1  0  0  0  0
  5  9  1  0  0  0  0
  6  7  2  0  0  0  0
  6  8  2  0  0  0  0
  9 10  1  0  0  0  0
  9 14  1  0  0  0  0
  9 15  1  0  0  0  0
 10 11  1  0  0  0  0
 10 16  1  0  0  0  0
 10 17  1  0  0  0  0
 11 18  1  0  0  0  0
 12 19  1  0  0  0  0
 12 20  1  0  0  0  0
 12 21  1  0  0  0  0
M  END
>  <activity>
Inactive

$$$$
mutag_d151
 OpenBabel01191712022D

 17 18  0  0  0  0  0  0  0  0999 V2000
   -3.2709   -0.5000    0.0000 C   0  0  0  0  0  0  0  0  0  0  0  0
   -2.4049   -1.0000    0.0000 C   0  0  0  0  0  0  0  0  0  0  0  0
   -1.5388   -0.5000    0.0000 C   0  0  0  0  0  0  0  0  0  0  0  0
   -1.5388    0.5000    0.0000 C   0  0  0  0  0  0  0  0  0  0  0  0
   -2.4049    1.0000    0.0000 C   0  0  0  0  0  0  0  0  0  0  0  0
   -3.2709    0.5000    0.0000 C   0  0  0  0  0  0  0  0  0  0  0  0
   -0.5878   -0.8090    0.0000 N   0  0  0  0  0  0  0  0  0  0  0  0
    0.0000    0.0000    0.0000 N   0  0  0  0  0  0  0  0  0  0  0  0
   -0.5878    0.8090    0.0000 C   0  0  0  0  0  0  0  0  0  0  0  0
   -2.4049   -2.0000    0.0000 N   0  0  0  0  0  0  0  0  0  0  0  0
   -3.2709   -2.5000    0.0000 O   0  0  0  0  0  0  0  0  0  0  0  0
   -1.5388   -2.5000    0.0000 O   0  0  0  0  0  0  0  0  0  0  0  0
   -4.1369   -1.0000    0.0000 H   0  0  0  0  0  0  0  0  0  0  0  0
   -2.4049    2.0000    0.0000 H   0  0  0  0  0  0  0  0  0  0  0  0
   -4.1369    1.0000    0.0000 H   0  0  0  0  0  0  0  0  0  0  0  0
   -0.2788    1.7601    0.0000 H   0  0  0  0  0  0  0  0  0  0  0  0
   -0.2788   -1.7601    0.0000 H   0  0  0  0  0  0  0  0  0  0  0  0
  1  2  2  0  0  0  0
  1 13  1  0  0  0  0
  2  3  1  0  0  0  0
  2 10  1  0  0  0  0
  3  4  2  0  0  0  0
  3  7  1  0  0  0  0
  4  5  1  0  0  0  0
  4  9  1  0  0  0  0
  5  6  2  0  0  0  0
  5 14  1  0  0  0  0
  6  1  1  0  0  0  0
  6 15  1  0  0  0  0
  7  8  1  0  0  0  0
  7 17  1  0  0  0  0
  9  8  2  0  0  0  0
  9 16  1  0  0  0  0
 10 11  2  0  0  0  0
 10 12  2  0  0  0  0
M  END
>  <activity>
Active

$$$$
mutag_d152
 OpenBabel01191712022D

 30 33  0  0  0  0  0  0  0  0999 V2000
   -0.0006   -2.8425    0.0000 C   0  0  0  0  0  0  0  0  0  0  0  0
   -0.8213   -2.3687    0.0000 C   0  0  0  0  0  0  0  0  0  0  0  0
   -0.8211   -1.4214    0.0000 C   0  0  0  0  0  0  0  0  0  0  0  0
   -0.0002   -0.9478    0.0000 C   0  0  0  0  0  0  0  0  0  0  0  0
    0.8200   -1.4217    0.0000 C   0  0  0  0  0  0  0  0  0  0  0  0
    0.8198   -2.3690    0.0000 C   0  0  0  0  0  0  0  0  0  0  0  0
   -1.6735   -2.8606    0.0000 H   0  0  0  0  0  0  0  0  0  0  0  0
    1.6720   -2.8612    0.0000 H   0  0  0  0  0  0  0  0  0  0  0  0
   -1.6413   -0.9475    0.0000 C   0  0  0  0  0  0  0  0  0  0  0  0
   -1.6411    0.0003    0.0000 C   0  0  0  0  0  0  0  0  0  0  0  0
   -0.8207    0.4738    0.0000 C   0  0  0  0  0  0  0  0  0  0  0  0
   -0.0000   -0.0000    0.0000 C   0  0  0  0  0  0  0  0  0  0  0  0
   -2.4936   -1.4393    0.0000 H   0  0  0  0  0  0  0  0  0  0  0  0
   -0.8206    1.4579    0.0000 H   0  0  0  0  0  0  0  0  0  0  0  0
    1.6409   -0.9482    0.0000 C   0  0  0  0  0  0  0  0  0  0  0  0
    1.6411   -0.0003    0.0000 C   0  0  0  0  0  0  0  0  0  0  0  0
    2.4620    0.4732    0.0000 C   0  0  0  0  0  0  0  0  0  0  0  0
    3.2822   -0.0007    0.0000 C   0  0  0  0  0  0  0  0  0  0  0  0
    3.2820   -0.9485    0.0000 C   0  0  0  0  0  0  0  0  0  0  0  0
    2.4616   -1.4220    0.0000 C   0  0  0  0  0  0  0  0  0  0  0  0
    2.4621    1.4572    0.0000 H   0  0  0  0  0  0  0  0  0  0  0  0
    4.1346    0.4912    0.0000 H   0  0  0  0  0  0  0  0  0  0  0  0
    4.1342   -1.4407    0.0000 H   0  0  0  0  0  0  0  0  0  0  0  0
    2.4616   -2.4060    0.0000 H   0  0  0  0  0  0  0  0  0  0  0  0
   -2.4614    0.4741    0.0000 N   0  0  0  0  0  0  0  0  0  0  0  0
   -0.0007   -3.7898    0.0000 N   0  0  0  0  0  0  0  0  0  0  0  0
   -0.9428   -3.8886    0.0000 O   0  0  0  0  0  0  0  0  0  0  0  0
    0.5559   -4.5562    0.0000 O   0  0  0  0  0  0  0  0  0  0  0  0
   -2.6582    1.4007    0.0000 O   0  0  0  0  0  0  0  0  0  0  0  0
   -3.1654   -0.1596    0.0000 O   0  0  0  0  0  0  0  0  0  0  0  0
  1  2  2  0  0  0  0
  1 26  1  0  0  0  0
  2  3  1  0  0  0  0
  2  7  1  0  0  0  0
  3  4  2  0  0  0  0
  3  9  1  0  0  0  0
  4  5  1  0  0  0  0
  5  6  2  0  0  0  0
  6  1  1  0  0  0  0
  6  8  1  0  0  0  0
  9 10  2  0  0  0  0
  9 13  1  0  0  0  0
 10 11  1  0  0  0  0
 10 25  1  0  0  0  0
 11 12  2  0  0  0  0
 11 14  1  0  0  0  0
 12  4  1  0  0  0  0
 15 16  2  0  0  0  0
 15  5  1  0  0  0  0
 16 17  1  0  0  0  0
 16 12  1  0  0  0  0
 17 18  2  0  0  0  0
 17 21  1  0  0  0  0
 18 19  1  0  0  0  0
 18 22  1  0  0  0  0
 19 20  2  0  0  0  0
 19 23  1  0  0  0  0
 20 15  1  0  0  0  0
 20 24  1  0  0  0  0
 25 29  2  0  0  0  0
 25 30  2  0  0  0  0
 26 27  2  0  0  0  0
 26 28  2  0  0  0  0
M  END
>  <activity>
Active

$$$$
mutag_d153
 OpenBabel01191712022D

 24 26  0  0  0  0  0  0  0  0999 V2000
   -2.4123    2.3204    0.0000 C   0  0  0  0  0  0  0  0  0  0  0  0
   -1.6083    2.7846    0.0000 C   0  0  0  0  0  0  0  0  0  0  0  0
   -0.8045    2.3207    0.0000 C   0  0  0  0  0  0  0  0  0  0  0  0
   -0.8043    1.3925    0.0000 C   0  0  0  0  0  0  0  0  0  0  0  0
   -1.6079    0.9279    0.0000 C   0  0  0  0  0  0  0  0  0  0  0  0
   -2.4121    1.3922    0.0000 C   0  0  0  0  0  0  0  0  0  0  0  0
   -3.2583    2.8087    0.0000 H   0  0  0  0  0  0  0  0  0  0  0  0
   -1.6084    3.7614    0.0000 H   0  0  0  0  0  0  0  0  0  0  0  0
   -3.2580    0.9037    0.0000 H   0  0  0  0  0  0  0  0  0  0  0  0
   -0.0005    2.7849    0.0000 C   0  0  0  0  0  0  0  0  0  0  0  0
    0.8036    2.3210    0.0000 C   0  0  0  0  0  0  0  0  0  0  0  0
    0.8038    1.3928    0.0000 C   0  0  0  0  0  0  0  0  0  0  0  0
   -0.0002    0.9282    0.0000 C   0  0  0  0  0  0  0  0  0  0  0  0
    1.6495    2.8095    0.0000 H   0  0  0  0  0  0  0  0  0  0  0  0
    1.6499    0.9046    0.0000 H   0  0  0  0  0  0  0  0  0  0  0  0
   -1.6078   -0.0003    0.0000 C   0  0  0  0  0  0  0  0  0  0  0  0
    0.0000   -0.0000    0.0000 C   0  0  0  0  0  0  0  0  0  0  0  0
   -2.2984   -0.6912    0.0000 H   0  0  0  0  0  0  0  0  0  0  0  0
   -2.5846   -0.0005    0.0000 H   0  0  0  0  0  0  0  0  0  0  0  0
    0.6909   -0.6906    0.0000 H   0  0  0  0  0  0  0  0  0  0  0  0
    0.9768    0.0002    0.0000 H   0  0  0  0  0  0  0  0  0  0  0  0
   -0.0007    3.7133    0.0000 N   0  0  0  0  0  0  0  0  0  0  0  0
    0.5888    4.4305    0.0000 O   0  0  0  0  0  0  0  0  0  0  0  0
   -0.9166    3.8652    0.0000 O   0  0  0  0  0  0  0  0  0  0  0  0
  1  2  2  0  0  0  0
  1  7  1  0  0  0  0
  2  3  1  0  0  0  0
  2  8  1  0  0  0  0
  3  4  2  0  0  0  0
  3 10  1  0  0  0  0
  4  5  1  0  0  0  0
  5  6  2  0  0  0  0
  5 16  1  0  0  0  0
  6  1  1  0  0  0  0
  6  9  1  0  0  0  0
 10 11  2  0  0  0  0
 10 22  1  0  0  0  0
 11 12  1  0  0  0  0
 11 14  1  0  0  0  0
 12 13  2  0  0  0  0
 12 15  1  0  0  0  0
 13  4  1  0  0  0  0
 13 17  1  0  0  0  0
 16 17  1  0  0  0  0
 16 18  1  0  0  0  0
 16 19  1  0  0  0  0
 17 20  1  0  0  0  0
 17 21  1  0  0  0  0
 22 23  2  0  0  0  0
 22 24  2  0  0  0  0
M  END
>  <activity>
Active

$$$$
mutag_d154
 OpenBabel01191712022D

 17 18  0  0  0  0  0  0  0  0999 V2000
   -3.2709   -0.5000    0.0000 C   0  0  0  0  0  0  0  0  0  0  0  0
   -2.4049   -1.0000    0.0000 C   0  0  0  0  0  0  0  0  0  0  0  0
   -1.5388   -0.5000    0.0000 C   0  0  0  0  0  0  0  0  0  0  0  0
   -1.5388    0.5000    0.0000 C   0  0  0  0  0  0  0  0  0  0  0  0
   -2.4049    1.0000    0.0000 C   0  0  0  0  0  0  0  0  0  0  0  0
   -3.2709    0.5000    0.0000 C   0  0  0  0  0  0  0  0  0  0  0  0
   -0.5878   -0.8090    0.0000 N   0  0  0  0  0  0  0  0  0  0  0  0
    0.0000    0.0000    0.0000 C   0  0  0  0  0  0  0  0  0  0  0  0
   -0.5878    0.8090    0.0000 N   0  0  0  0  0  0  0  0  0  0  0  0
    1.0000    0.0000    0.0000 N   0  0  0  0  0  0  0  0  0  0  0  0
    1.5000   -0.8660    0.0000 O   0  0  0  0  0  0  0  0  0  0  0  0
    1.5000    0.8660    0.0000 O   0  0  0  0  0  0  0  0  0  0  0  0
   -4.1369   -1.0000    0.0000 H   0  0  0  0  0  0  0  0  0  0  0  0
   -2.4049   -2.0000    0.0000 H   0  0  0  0  0  0  0  0  0  0  0  0
   -2.4049    2.0000    0.0000 H   0  0  0  0  0  0  0  0  0  0  0  0
   -4.1369    1.0000    0.0000 H   0  0  0  0  0  0  0  0  0  0  0  0
   -0.2788   -1.7601    0.0000 H   0  0  0  0  0  0  0  0  0  0  0  0
  1  2  2  0  0  0  0
  1 13  1  0  0  0  0
  2  3  1  0  0  0  0
  2 14  1  0  0  0  0
  3  4  2  0  0  0  0
  3  7  1  0  0  0  0
  4  5  1  0  0  0  0
  4  9  1  0  0  0  0
  5  6  2  0  0  0  0
  5 15  1  0  0  0  0
  6  1  1  0  0  0  0
  6 16  1  0  0  0  0
  7  8  1  0  0  0  0
  7 17  1  0  0  0  0
  8 10  1  0  0  0  0
  9  8  2  0  0  0  0
 10 11  2  0  0  0  0
 10 12  2  0  0  0  0
M  END
>  <activity>
Inactive

$$$$
mutag_d155
 OpenBabel01191712022D

 20 20  0  0  0  0  0  0  0  0999 V2000
   -0.0000   -0.0000    0.0000 C   0  0  0  0  0  0  0  0  0  0  0  0
   -0.8660    0.5000    0.0000 C   0  0  0  0  0  0  0  0  0  0  0  0
   -0.8660    1.5000    0.0000 C   0  0  0  0  0  0  0  0  0  0  0  0
   -0.0000    2.0000    0.0000 C   0  0  0  0  0  0  0  0  0  0  0  0
    0.8660    1.5000    0.0000 C   0  0  0  0  0  0  0  0  0  0  0  0
    0.8660    0.5000    0.0000 C   0  0  0  0  0  0  0  0  0  0  0  0
   -0.0000   -1.0000    0.0000 H   0  0  0  0  0  0  0  0  0  0  0  0
   -1.7321    2.0000    0.0000 H   0  0  0  0  0  0  0  0  0  0  0  0
    1.7321    0.0000    0.0000 H   0  0  0  0  0  0  0  0  0  0  0  0
    1.7321    2.0000    0.0000 O   0  0  0  0  0  0  0  0  0  0  0  0
    2.5981    1.5000    0.0000 C   0  0  0  0  0  0  0  0  0  0  0  0
    3.5981    1.5000    0.0000 H   0  0  0  0  0  0  0  0  0  0  0  0
    3.0981    2.3660    0.0000 H   0  0  0  0  0  0  0  0  0  0  0  0
    2.5981    0.5000    0.0000 H   0  0  0  0  0  0  0  0  0  0  0  0
   -0.0000    3.0000    0.0000 N   0  0  0  0  0  0  0  0  0  0  0  0
   -1.7321    0.0000    0.0000 N   0  0  0  0  0  0  0  0  0  0  0  0
    0.8660    3.5000    0.0000 O   0  0  0  0  0  0  0  0  0  0  0  0
   -0.8660    3.5000    0.0000 O   0  0  0  0  0  0  0  0  0  0  0  0
   -2.5981    0.5000    0.0000 O   0  0  0  0  0  0  0  0  0  0  0  0
   -1.7321   -1.0000    0.0000 O   0  0  0  0  0  0  0  0  0  0  0  0
  1  2  2  0  0  0  0
  1  7  1  0  0  0  0
  2  3  1  0  0  0  0
  2 16  1  0  0  0  0
  3  4  2  0  0  0  0
  3  8  1  0  0  0  0
  4  5  1  0  0  0  0
  4 15  1  0  0  0  0
  5  6  2  0  0  0  0
  5 10  1  0  0  0  0
  6  1  1  0  0  0  0
  6  9  1  0  0  0  0
 10 11  1  0  0  0  0
 11 12  1  0  0  0  0
 11 13  1  0  0  0  0
 11 14  1  0  0  0  0
 15 17  2  0  0  0  0
 15 18  2  0  0  0  0
 16 19  2  0  0  0  0
 16 20  2  0  0  0  0
M  END
>  <activity>
Inactive

$$$$
mutag_d156
 OpenBabel01191712022D

 20 21  0  0  0  0  0  0  0  0999 V2000
    3.2709    0.5000    0.0000 C   0  0  0  0  0  0  0  0  0  0  0  0
    2.4049    1.0000    0.0000 C   0  0  0  0  0  0  0  0  0  0  0  0
    1.5388    0.5000    0.0000 C   0  0  0  0  0  0  0  0  0  0  0  0
    1.5388   -0.5000    0.0000 C   0  0  0  0  0  0  0  0  0  0  0  0
    2.4049   -1.0000    0.0000 C   0  0  0  0  0  0  0  0  0  0  0  0
    3.2709   -0.5000    0.0000 C   0  0  0  0  0  0  0  0  0  0  0  0
    2.4049    2.0000    0.0000 H   0  0  0  0  0  0  0  0  0  0  0  0
    2.4049   -2.0000    0.0000 H   0  0  0  0  0  0  0  0  0  0  0  0
    4.1369   -1.0000    0.0000 H   0  0  0  0  0  0  0  0  0  0  0  0
    0.5878    0.8090    0.0000 N   0  0  0  0  0  0  0  0  0  0  0  0
    0.0000   -0.0000    0.0000 C   0  0  0  0  0  0  0  0  0  0  0  0
    0.5878   -0.8090    0.0000 C   0  0  0  0  0  0  0  0  0  0  0  0
    0.2788    1.7601    0.0000 H   0  0  0  0  0  0  0  0  0  0  0  0
   -0.1554   -1.4781    0.0000 H   0  0  0  0  0  0  0  0  0  0  0  0
    0.7957   -1.7872    0.0000 H   0  0  0  0  0  0  0  0  0  0  0  0
   -0.8660    0.5000    0.0000 H   0  0  0  0  0  0  0  0  0  0  0  0
   -0.8660   -0.5000    0.0000 H   0  0  0  0  0  0  0  0  0  0  0  0
    4.1369    1.0000    0.0000 N   0  0  0  0  0  0  0  0  0  0  0  0
    5.0029    0.5000    0.0000 O   0  0  0  0  0  0  0  0  0  0  0  0
    4.1369    2.0000    0.0000 O   0  0  0  0  0  0  0  0  0  0  0  0
  1  2  2  0  0  0  0
  1 18  1  0  0  0  0
  2  3  1  0  0  0  0
  2  7  1  0  0  0  0
  3  4  2  0  0  0  0
  3 10  1  0  0  0  0
  4  5  1  0  0  0  0
  4 12  1  0  0  0  0
  5  6  2  0  0  0  0
  5  8  1  0  0  0  0
  6  1  1  0  0  0  0
  6  9  1  0  0  0  0
 10 11  1  0  0  0  0
 10 13  1  0  0  0  0
 11 16  1  0  0  0  0
 11 17  1  0  0  0  0
 12 11  1  0  0  0  0
 12 14  1  0  0  0  0
 12 15  1  0  0  0  0
 18 19  2  0  0  0  0
 18 20  2  0  0  0  0
M  END
>  <activity>
Inactive

$$$$
mutag_d157
 OpenBabel01191712022D

 42 45  0  0  0  0  0  0  0  0999 V2000
    3.2566    0.9147    0.0000 C   0  0  0  0  0  0  0  0  0  0  0  0
    3.2497   -0.0287    0.0000 C   0  0  0  0  0  0  0  0  0  0  0  0
    2.4344   -0.4913    0.0000 C   0  0  3  0  0  0  0  0  0  0  0  0
    1.6259   -0.0105    0.0000 C   0  0  3  0  0  0  0  0  0  0  0  0
    1.6307    0.9252    0.0000 C   0  0  3  0  0  0  0  0  0  0  0  0
    2.4461    1.3878    0.0000 C   0  0  0  0  0  0  0  0  0  0  0  0
    2.4268   -1.4221    0.0000 C   0  0  0  0  0  0  0  0  0  0  0  0
    1.6160   -1.8822    0.0000 C   0  0  0  0  0  0  0  0  0  0  0  0
    0.8037   -1.4165    0.0000 C   0  0  3  0  0  0  0  0  0  0  0  0
    0.8151   -0.4706    0.0000 C   0  0  3  0  0  0  0  0  0  0  0  0
    0.0000   -0.0000    0.0000 C   0  0  3  0  0  0  0  0  0  0  0  0
    0.0169    0.9361    0.0000 C   0  0  0  0  0  0  0  0  0  0  0  0
    0.8278    1.3962    0.0000 C   0  0  0  0  0  0  0  0  0  0  0  0
   -0.0117   -1.8791    0.0000 C   0  0  0  0  0  0  0  0  0  0  0  0
   -0.8101   -1.4056    0.0000 C   0  0  0  0  0  0  0  0  0  0  0  0
   -0.8154   -0.4626    0.0000 C   0  0  3  0  0  0  0  0  0  0  0  0
    3.2344   -1.8968    0.0000 H   0  0  0  0  0  0  0  0  0  0  0  0
    1.6139   -2.8189    0.0000 H   0  0  0  0  0  0  0  0  0  0  0  0
   -0.7882    1.4149    0.0000 H   0  0  0  0  0  0  0  0  0  0  0  0
    0.8346    2.3329    0.0000 H   0  0  0  0  0  0  0  0  0  0  0  0
   -0.0185   -2.8158    0.0000 H   0  0  0  0  0  0  0  0  0  0  0  0
   -1.6228   -1.8714    0.0000 H   0  0  0  0  0  0  0  0  0  0  0  0
    4.0575   -0.5030    0.0000 H   0  0  0  0  0  0  0  0  0  0  0  0
    4.0645    0.4336    0.0000 H   0  0  0  0  0  0  0  0  0  0  0  0
    2.4518    2.3245    0.0000 H   0  0  0  0  0  0  0  0  0  0  0  0
    4.0707    1.3782    0.0000 H   0  0  0  0  0  0  0  0  0  0  0  0
   -1.6268    0.0069    0.0000 N   0  0  0  0  0  0  0  0  0  0  0  0
   -2.0792    0.8280    0.0000 O   0  0  0  0  0  0  0  0  0  0  0  0
   -2.1116   -0.7954    0.0000 O   0  0  0  0  0  0  0  0  0  0  0  0
    2.4453    0.5787    0.0000 H   0  0  0  0  0  0  0  0  0  0  0  0
    2.5574    0.5161    0.0000 H   0  0  0  0  0  0  0  0  0  0  0  0
    2.5540    0.3844    0.0000 H   0  0  0  0  0  0  0  0  0  0  0  0
    2.4186   -2.4921    0.0000 H   0  0  0  0  0  0  0  0  0  0  0  0
    0.6895   -2.4175    0.0000 H   0  0  0  0  0  0  0  0  0  0  0  0
    1.7327   -0.8857    0.0000 H   0  0  0  0  0  0  0  0  0  0  0  0
    1.7364   -1.0146    0.0000 H   0  0  0  0  0  0  0  0  0  0  0  0
    0.9314    0.5266    0.0000 H   0  0  0  0  0  0  0  0  0  0  0  0
    0.0278    2.0061    0.0000 H   0  0  0  0  0  0  0  0  0  0  0  0
    1.7582    1.9246    0.0000 H   0  0  0  0  0  0  0  0  0  0  0  0
   -0.9434   -2.4053    0.0000 H   0  0  0  0  0  0  0  0  0  0  0  0
   -1.7374   -0.8717    0.0000 H   0  0  0  0  0  0  0  0  0  0  0  0
    0.1108   -0.9985    0.0000 H   0  0  0  0  0  0  0  0  0  0  0  0
  1  2  1  0  0  0  0
  1 26  1  0  0  0  0
  2  3  1  0  0  0  0
  2 23  1  0  0  0  0
  2 24  1  0  0  0  0
  3  4  1  0  0  0  0
  3  7  1  0  0  0  0
  3 30  1  0  0  0  0
  4  5  1  0  0  0  0
  4 31  1  0  0  0  0
  5  6  1  0  0  0  0
  5 32  1  0  0  0  0
  6  1  2  0  0  0  0
  6 25  1  0  0  0  0
  7  8  1  0  0  0  0
  7 17  1  0  0  0  0
  7 33  1  0  0  0  0
  8  9  1  0  0  0  0
  8 18  1  0  0  0  0
  8 34  1  0  0  0  0
  9 10  1  0  0  0  0
  9 14  1  0  0  0  0
  9 35  1  0  0  0  0
 10  4  1  0  0  0  0
 10 11  1  0  0  0  0
 10 36  1  0  0  0  0
 11 12  1  0  0  0  0
 11 37  1  0  0  0  0
 12 13  1  0  0  0  0
 12 19  1  0  0  0  0
 12 38  1  0  0  0  0
 13  5  1  0  0  0  0
 13 20  1  0  0  0  0
 13 39  1  0  0  0  0
 14 15  1  0  0  0  0
 14 21  1  0  0  0  0
 14 40  1  0  0  0  0
 15 16  1  0  0  0  0
 15 22  1  0  0  0  0
 15 41  1  0  0  0  0
 16 11  1  0  0  0  0
 16 27  1  0  0  0  0
 16 42  1  0  0  0  0
 27 28  2  0  0  0  0
 27 29  2  0  0  0  0
M  END
>  <activity>
Active

$$$$
mutag_d158
 OpenBabel01191712022D

 32 34  0  0  0  0  0  0  0  0999 V2000
   -3.3535    0.0007    0.0000 C   0  0  0  0  0  0  0  0  0  0  0  0
   -2.5153    0.4845    0.0000 C   0  0  0  0  0  0  0  0  0  0  0  0
   -1.6768    0.0003    0.0000 C   0  0  0  0  0  0  0  0  0  0  0  0
   -1.6770   -0.9681    0.0000 C   0  0  0  0  0  0  0  0  0  0  0  0
   -2.5157   -1.4519    0.0000 C   0  0  0  0  0  0  0  0  0  0  0  0
   -3.3537   -0.9678    0.0000 C   0  0  0  0  0  0  0  0  0  0  0  0
   -2.5151    1.4999    0.0000 H   0  0  0  0  0  0  0  0  0  0  0  0
   -2.5159   -2.4673    0.0000 H   0  0  0  0  0  0  0  0  0  0  0  0
   -4.2332   -1.4753    0.0000 H   0  0  0  0  0  0  0  0  0  0  0  0
    0.0000    0.0000    0.0000 C   0  0  0  0  0  0  0  0  0  0  0  0
    0.8387    0.4838    0.0000 C   0  0  0  0  0  0  0  0  0  0  0  0
    1.6768   -0.0003    0.0000 C   0  0  0  0  0  0  0  0  0  0  0  0
    1.6766   -0.9688    0.0000 C   0  0  0  0  0  0  0  0  0  0  0  0
    0.8383   -1.4526    0.0000 C   0  0  0  0  0  0  0  0  0  0  0  0
   -0.0002   -0.9684    0.0000 C   0  0  0  0  0  0  0  0  0  0  0  0
    0.8391    1.4992    0.0000 H   0  0  0  0  0  0  0  0  0  0  0  0
    2.5558   -1.4766    0.0000 H   0  0  0  0  0  0  0  0  0  0  0  0
    0.8383   -2.4679    0.0000 H   0  0  0  0  0  0  0  0  0  0  0  0
   -0.8385    0.4841    0.0000 C   0  0  0  0  0  0  0  0  0  0  0  0
   -0.8385    1.4995    0.0000 H   0  0  0  0  0  0  0  0  0  0  0  0
   -1.7179    0.9918    0.0000 H   0  0  0  0  0  0  0  0  0  0  0  0
   -4.1917    0.4846    0.0000 N   0  0  0  0  0  0  0  0  0  0  0  0
   -4.2928    1.4471    0.0000 O   0  0  0  0  0  0  0  0  0  0  0  0
   -4.9747   -0.0843    0.0000 O   0  0  0  0  0  0  0  0  0  0  0  0
    2.5150    0.4834    0.0000 N   0  0  0  0  0  0  0  0  0  0  0  0
    3.4354    0.1841    0.0000 C   0  0  0  0  0  0  0  0  0  0  0  0
    4.1548    0.8315    0.0000 C   0  0  0  0  0  0  0  0  0  0  0  0
    2.3140    1.4301    0.0000 H   0  0  0  0  0  0  0  0  0  0  0  0
    3.6364   -0.7626    0.0000 O   0  0  0  0  0  0  0  0  0  0  0  0
    5.1015    1.0325    0.0000 H   0  0  0  0  0  0  0  0  0  0  0  0
    4.8022    0.1122    0.0000 H   0  0  0  0  0  0  0  0  0  0  0  0
    3.9538    1.7783    0.0000 H   0  0  0  0  0  0  0  0  0  0  0  0
  1  2  2  0  0  0  0
  1 22  1  0  0  0  0
  2  3  1  0  0  0  0
  2  7  1  0  0  0  0
  3  4  2  0  0  0  0
  3 19  1  0  0  0  0
  4  5  1  0  0  0  0
  4 15  1  0  0  0  0
  5  6  2  0  0  0  0
  5  8  1  0  0  0  0
  6  1  1  0  0  0  0
  6  9  1  0  0  0  0
 10 11  2  0  0  0  0
 11 12  1  0  0  0  0
 11 16  1  0  0  0  0
 12 13  2  0  0  0  0
 12 25  1  0  0  0  0
 13 14  1  0  0  0  0
 13 17  1  0  0  0  0
 14 15  2  0  0  0  0
 14 18  1  0  0  0  0
 15 10  1  0  0  0  0
 19 10  1  0  0  0  0
 19 20  1  0  0  0  0
 19 21  1  0  0  0  0
 22 24  2  0  0  0  0
 23 22  2  0  0  0  0
 25 26  1  0  0  0  0
 25 28  1  0  0  0  0
 26 27  1  0  0  0  0
 26 29  2  0  0  0  0
 27 30  1  0  0  0  0
 27 31  1  0  0  0  0
 27 32  1  0  0  0  0
M  END
>  <activity>
Active

$$$$
mutag_d159
 OpenBabel01191712022D

 42 45  0  0  0  0  0  0  0  0999 V2000
    3.2566    0.9147    0.0000 C   0  0  0  0  0  0  0  0  0  0  0  0
    3.2497   -0.0287    0.0000 C   0  0  0  0  0  0  0  0  0  0  0  0
    2.4344   -0.4913    0.0000 C   0  0  3  0  0  0  0  0  0  0  0  0
    1.6259   -0.0105    0.0000 C   0  0  3  0  0  0  0  0  0  0  0  0
    1.6307    0.9252    0.0000 C   0  0  3  0  0  0  0  0  0  0  0  0
    2.4461    1.3878    0.0000 C   0  0  0  0  0  0  0  0  0  0  0  0
    2.4268   -1.4221    0.0000 C   0  0  0  0  0  0  0  0  0  0  0  0
    1.6160   -1.8822    0.0000 C   0  0  0  0  0  0  0  0  0  0  0  0
    0.8037   -1.4165    0.0000 C   0  0  3  0  0  0  0  0  0  0  0  0
    0.8151   -0.4706    0.0000 C   0  0  3  0  0  0  0  0  0  0  0  0
    0.0000   -0.0000    0.0000 C   0  0  3  0  0  0  0  0  0  0  0  0
    0.0169    0.9361    0.0000 C   0  0  0  0  0  0  0  0  0  0  0  0
    0.8278    1.3962    0.0000 C   0  0  0  0  0  0  0  0  0  0  0  0
   -0.0117   -1.8791    0.0000 C   0  0  0  0  0  0  0  0  0  0  0  0
   -0.8101   -1.4056    0.0000 C   0  0  0  0  0  0  0  0  0  0  0  0
   -0.8154   -0.4626    0.0000 C   0  0  3  0  0  0  0  0  0  0  0  0
    3.2344   -1.8968    0.0000 H   0  0  0  0  0  0  0  0  0  0  0  0
    1.6139   -2.8189    0.0000 H   0  0  0  0  0  0  0  0  0  0  0  0
   -0.7882    1.4149    0.0000 H   0  0  0  0  0  0  0  0  0  0  0  0
    0.8346    2.3329    0.0000 H   0  0  0  0  0  0  0  0  0  0  0  0
   -0.0185   -2.8158    0.0000 H   0  0  0  0  0  0  0  0  0  0  0  0
   -1.6228   -1.8714    0.0000 H   0  0  0  0  0  0  0  0  0  0  0  0
    2.4518    2.3245    0.0000 H   0  0  0  0  0  0  0  0  0  0  0  0
    3.2608    1.8501    0.0000 H   0  0  0  0  0  0  0  0  0  0  0  0
    4.0714    1.3770    0.0000 H   0  0  0  0  0  0  0  0  0  0  0  0
    4.0575   -0.5030    0.0000 H   0  0  0  0  0  0  0  0  0  0  0  0
   -1.6237    0.0121    0.0000 N   0  0  0  0  0  0  0  0  0  0  0  0
   -2.0708    0.8361    0.0000 O   0  0  0  0  0  0  0  0  0  0  0  0
   -2.1137   -0.7871    0.0000 O   0  0  0  0  0  0  0  0  0  0  0  0
    2.4453    0.5787    0.0000 H   0  0  0  0  0  0  0  0  0  0  0  0
    2.5574    0.5161    0.0000 H   0  0  0  0  0  0  0  0  0  0  0  0
    2.5540    0.3844    0.0000 H   0  0  0  0  0  0  0  0  0  0  0  0
    2.4186   -2.4921    0.0000 H   0  0  0  0  0  0  0  0  0  0  0  0
    0.6895   -2.4175    0.0000 H   0  0  0  0  0  0  0  0  0  0  0  0
    1.7327   -0.8857    0.0000 H   0  0  0  0  0  0  0  0  0  0  0  0
    1.7364   -1.0146    0.0000 H   0  0  0  0  0  0  0  0  0  0  0  0
    0.9314    0.5266    0.0000 H   0  0  0  0  0  0  0  0  0  0  0  0
    0.0278    2.0061    0.0000 H   0  0  0  0  0  0  0  0  0  0  0  0
    1.7582    1.9246    0.0000 H   0  0  0  0  0  0  0  0  0  0  0  0
   -0.9434   -2.4053    0.0000 H   0  0  0  0  0  0  0  0  0  0  0  0
   -1.7374   -0.8717    0.0000 H   0  0  0  0  0  0  0  0  0  0  0  0
    0.1108   -0.9985    0.0000 H   0  0  0  0  0  0  0  0  0  0  0  0
  1  2  2  0  0  0  0
  1 25  1  0  0  0  0
  2  3  1  0  0  0  0
  2 26  1  0  0  0  0
  3  4  1  0  0  0  0
  3  7  1  0  0  0  0
  3 30  1  0  0  0  0
  4  5  1  0  0  0  0
  4 31  1  0  0  0  0
  5  6  1  0  0  0  0
  5 32  1  0  0  0  0
  6  1  1  0  0  0  0
  6 23  1  0  0  0  0
  6 24  1  0  0  0  0
  7  8  1  0  0  0  0
  7 17  1  0  0  0  0
  7 33  1  0  0  0  0
  8  9  1  0  0  0  0
  8 18  1  0  0  0  0
  8 34  1  0  0  0  0
  9 10  1  0  0  0  0
  9 14  1  0  0  0  0
  9 35  1  0  0  0  0
 10  4  1  0  0  0  0
 10 11  1  0  0  0  0
 10 36  1  0  0  0  0
 11 12  1  0  0  0  0
 11 37  1  0  0  0  0
 12 13  1  0  0  0  0
 12 19  1  0  0  0  0
 12 38  1  0  0  0  0
 13  5  1  0  0  0  0
 13 20  1  0  0  0  0
 13 39  1  0  0  0  0
 14 15  1  0  0  0  0
 14 21  1  0  0  0  0
 14 40  1  0  0  0  0
 15 16  1  0  0  0  0
 15 22  1  0  0  0  0
 15 41  1  0  0  0  0
 16 11  1  0  0  0  0
 16 27  1  0  0  0  0
 16 42  1  0  0  0  0
 27 28  2  0  0  0  0
 27 29  2  0  0  0  0
M  END
>  <activity>
Active

$$$$
mutag_d16
 OpenBabel01191712022D

 30 33  0  0  0  0  0  0  0  0999 V2000
    0.0006    2.8487    0.0000 C   0  0  0  0  0  0  0  0  0  0  0  0
    0.8231    2.3739    0.0000 C   0  0  0  0  0  0  0  0  0  0  0  0
    0.8229    1.4245    0.0000 C   0  0  0  0  0  0  0  0  0  0  0  0
    0.0002    0.9499    0.0000 C   0  0  0  0  0  0  0  0  0  0  0  0
   -0.8218    1.4248    0.0000 C   0  0  0  0  0  0  0  0  0  0  0  0
   -0.8216    2.3742    0.0000 C   0  0  0  0  0  0  0  0  0  0  0  0
    1.6449    0.9496    0.0000 C   0  0  0  0  0  0  0  0  0  0  0  0
    1.6447   -0.0003    0.0000 C   0  0  0  0  0  0  0  0  0  0  0  0
    0.8225   -0.4749    0.0000 C   0  0  0  0  0  0  0  0  0  0  0  0
    0.0000    0.0000    0.0000 C   0  0  0  0  0  0  0  0  0  0  0  0
   -1.6445    0.9502    0.0000 C   0  0  0  0  0  0  0  0  0  0  0  0
   -1.6447    0.0003    0.0000 C   0  0  0  0  0  0  0  0  0  0  0  0
   -2.4674   -0.4742    0.0000 C   0  0  0  0  0  0  0  0  0  0  0  0
   -3.2894    0.0007    0.0000 C   0  0  0  0  0  0  0  0  0  0  0  0
   -3.2892    0.9506    0.0000 C   0  0  0  0  0  0  0  0  0  0  0  0
   -2.4670    1.4251    0.0000 C   0  0  0  0  0  0  0  0  0  0  0  0
    2.4671    1.4241    0.0000 N   0  0  0  0  0  0  0  0  0  0  0  0
    1.6454    2.8484    0.0000 N   0  0  0  0  0  0  0  0  0  0  0  0
    3.4036    1.2683    0.0000 O   0  0  0  0  0  0  0  0  0  0  0  0
    2.1338    2.3129    0.0000 O   0  0  0  0  0  0  0  0  0  0  0  0
    2.5126    2.4620    0.0000 O   0  0  0  0  0  0  0  0  0  0  0  0
    1.5464    3.7926    0.0000 O   0  0  0  0  0  0  0  0  0  0  0  0
    0.0006    3.8261    0.0000 H   0  0  0  0  0  0  0  0  0  0  0  0
   -1.6680    2.8630    0.0000 H   0  0  0  0  0  0  0  0  0  0  0  0
    2.4910   -0.4891    0.0000 H   0  0  0  0  0  0  0  0  0  0  0  0
    0.8224   -1.4522    0.0000 H   0  0  0  0  0  0  0  0  0  0  0  0
   -4.1359   -0.4878    0.0000 H   0  0  0  0  0  0  0  0  0  0  0  0
   -4.1355    1.4394    0.0000 H   0  0  0  0  0  0  0  0  0  0  0  0
   -2.4669    2.4025    0.0000 H   0  0  0  0  0  0  0  0  0  0  0  0
   -2.4675   -1.4516    0.0000 H   0  0  0  0  0  0  0  0  0  0  0  0
  1  2  2  0  0  0  0
  1 23  1  0  0  0  0
  2  3  1  0  0  0  0
  2 18  1  0  0  0  0
  3  4  2  0  0  0  0
  3  7  1  0  0  0  0
  4  5  1  0  0  0  0
  5  6  2  0  0  0  0
  6  1  1  0  0  0  0
  6 24  1  0  0  0  0
  7  8  2  0  0  0  0
  7 17  1  0  0  0  0
  8  9  1  0  0  0  0
  8 25  1  0  0  0  0
  9 10  2  0  0  0  0
  9 26  1  0  0  0  0
 10  4  1  0  0  0  0
 11 12  2  0  0  0  0
 11  5  1  0  0  0  0
 12 13  1  0  0  0  0
 12 10  1  0  0  0  0
 13 14  2  0  0  0  0
 13 30  1  0  0  0  0
 14 15  1  0  0  0  0
 14 27  1  0  0  0  0
 15 16  2  0  0  0  0
 15 28  1  0  0  0  0
 16 11  1  0  0  0  0
 16 29  1  0  0  0  0
 17 19  2  0  0  0  0
 17 20  2  0  0  0  0
 18 21  2  0  0  0  0
 18 22  2  0  0  0  0
M  END
>  <activity>
Active

$$$$
mutag_d160
 OpenBabel01191712022D

 18 18  0  0  0  0  0  0  0  0999 V2000
   -0.0000   -0.0000    0.0000 C   0  0  0  0  0  0  0  0  0  0  0  0
   -0.8660    0.5000    0.0000 C   0  0  0  0  0  0  0  0  0  0  0  0
   -0.8660    1.5000    0.0000 C   0  0  0  0  0  0  0  0  0  0  0  0
   -0.0000    2.0000    0.0000 C   0  0  0  0  0  0  0  0  0  0  0  0
    0.8660    1.5000    0.0000 C   0  0  0  0  0  0  0  0  0  0  0  0
    0.8660    0.5000    0.0000 C   0  0  0  0  0  0  0  0  0  0  0  0
   -0.0000   -1.0000    0.0000 H   0  0  0  0  0  0  0  0  0  0  0  0
   -1.7321    2.0000    0.0000 H   0  0  0  0  0  0  0  0  0  0  0  0
    1.7321    2.0000    0.0000 N   0  0  0  0  0  0  0  0  0  0  0  0
    2.5981    1.5000    0.0000 H   0  0  0  0  0  0  0  0  0  0  0  0
    1.7321    3.0000    0.0000 H   0  0  0  0  0  0  0  0  0  0  0  0
   -0.0000    3.0000    0.0000 Br  0  0  0  0  0  0  0  0  0  0  0  0
   -1.7321   -0.0000    0.0000 N   0  0  0  0  0  0  0  0  0  0  0  0
    1.7321    0.0000    0.0000 N   0  0  0  0  0  0  0  0  0  0  0  0
    1.7321   -1.0000    0.0000 O   0  0  0  0  0  0  0  0  0  0  0  0
    2.5981    0.5000    0.0000 O   0  0  0  0  0  0  0  0  0  0  0  0
   -2.5981    0.5000    0.0000 O   0  0  0  0  0  0  0  0  0  0  0  0
   -1.7321   -1.0000    0.0000 O   0  0  0  0  0  0  0  0  0  0  0  0
  1  2  2  0  0  0  0
  1  7  1  0  0  0  0
  2  3  1  0  0  0  0
  2 13  1  0  0  0  0
  3  4  2  0  0  0  0
  3  8  1  0  0  0  0
  4  5  1  0  0  0  0
  4 12  1  0  0  0  0
  5  6  2  0  0  0  0
  5  9  1  0  0  0  0
  6  1  1  0  0  0  0
  6 14  1  0  0  0  0
  9 10  1  0  0  0  0
  9 11  1  0  0  0  0
 13 17  2  0  0  0  0
 13 18  2  0  0  0  0
 14 15  2  0  0  0  0
 14 16  2  0  0  0  0
M  END
>  <activity>
Inactive

$$$$
mutag_d161
 OpenBabel01191712022D

 36 40  0  0  0  0  0  0  0  0999 V2000
    1.6148    1.8232    0.0000 C   0  0  0  0  0  0  0  0  0  0  0  0
    2.4123    1.3489    0.0000 C   0  0  0  0  0  0  0  0  0  0  0  0
    2.4003    0.4269    0.0000 C   0  0  0  0  0  0  0  0  0  0  0  0
    1.5907   -0.0208    0.0000 C   0  0  0  0  0  0  0  0  0  0  0  0
    0.7986    0.4479    0.0000 C   0  0  0  0  0  0  0  0  0  0  0  0
    0.8106    1.3698    0.0000 C   0  0  0  0  0  0  0  0  0  0  0  0
    1.6268    2.7436    0.0000 H   0  0  0  0  0  0  0  0  0  0  0  0
    0.0188    1.8394    0.0000 H   0  0  0  0  0  0  0  0  0  0  0  0
    3.1869   -0.0417    0.0000 C   0  0  0  0  0  0  0  0  0  0  0  0
    3.1749   -0.9586    0.0000 C   0  0  0  0  0  0  0  0  0  0  0  0
    2.3762   -1.4170    0.0000 C   0  0  0  0  0  0  0  0  0  0  0  0
    1.5787   -0.9377    0.0000 C   0  0  0  0  0  0  0  0  0  0  0  0
    3.9902    0.4079    0.0000 H   0  0  0  0  0  0  0  0  0  0  0  0
    3.9685   -1.4251    0.0000 H   0  0  0  0  0  0  0  0  0  0  0  0
    0.7744   -1.3961    0.0000 C   0  0  0  0  0  0  0  0  0  0  0  0
   -0.0120   -0.9169    0.0000 C   0  0  0  0  0  0  0  0  0  0  0  0
    0.0000   -0.0000    0.0000 C   0  0  0  0  0  0  0  0  0  0  0  0
    2.3641   -2.3390    0.0000 C   0  0  0  0  0  0  0  0  0  0  0  0
    1.5656   -2.7818    0.0000 C   0  0  0  0  0  0  0  0  0  0  0  0
    0.7624   -2.3181    0.0000 C   0  0  0  0  0  0  0  0  0  0  0  0
    3.1577   -2.8055    0.0000 H   0  0  0  0  0  0  0  0  0  0  0  0
    1.5577   -3.7023    0.0000 H   0  0  0  0  0  0  0  0  0  0  0  0
   -0.8121   -1.3650    0.0000 C   0  0  0  0  0  0  0  0  0  0  0  0
   -1.6001   -0.8961    0.0000 C   0  0  0  0  0  0  0  0  0  0  0  0
   -1.5881    0.0208    0.0000 C   0  0  0  0  0  0  0  0  0  0  0  0
   -0.7881    0.4688    0.0000 C   0  0  0  0  0  0  0  0  0  0  0  0
   -0.8241   -2.2862    0.0000 H   0  0  0  0  0  0  0  0  0  0  0  0
   -2.4040   -1.3463    0.0000 H   0  0  0  0  0  0  0  0  0  0  0  0
   -2.3800    0.4918    0.0000 H   0  0  0  0  0  0  0  0  0  0  0  0
   -0.7760    1.3901    0.0000 H   0  0  0  0  0  0  0  0  0  0  0  0
   -0.0391   -2.7739    0.0000 N   0  0  0  0  0  0  0  0  0  0  0  0
    3.2168    1.7995    0.0000 N   0  0  0  0  0  0  0  0  0  0  0  0
   -0.9609   -2.7503    0.0000 O   0  0  0  0  0  0  0  0  0  0  0  0
    0.4014   -3.5839    0.0000 O   0  0  0  0  0  0  0  0  0  0  0  0
    3.6674    0.9951    0.0000 O   0  0  0  0  0  0  0  0  0  0  0  0
    3.6881    2.5920    0.0000 O   0  0  0  0  0  0  0  0  0  0  0  0
  1  2  2  0  0  0  0
  1  7  1  0  0  0  0
  2  3  1  0  0  0  0
  2 32  1  0  0  0  0
  3  4  2  0  0  0  0
  3  9  1  0  0  0  0
  4  5  1  0  0  0  0
  5  6  2  0  0  0  0
  6  1  1  0  0  0  0
  6  8  1  0  0  0  0
  9 10  2  0  0  0  0
  9 13  1  0  0  0  0
 10 11  1  0  0  0  0
 10 14  1  0  0  0  0
 11 12  2  0  0  0  0
 11 18  1  0  0  0  0
 12  4  1  0  0  0  0
 12 15  1  0  0  0  0
 15 16  1  0  0  0  0
 16 17  2  0  0  0  0
 16 23  1  0  0  0  0
 17  5  1  0  0  0  0
 18 19  2  0  0  0  0
 18 21  1  0  0  0  0
 19 20  1  0  0  0  0
 19 22  1  0  0  0  0
 20 15  2  0  0  0  0
 20 31  1  0  0  0  0
 23 24  2  0  0  0  0
 23 27  1  0  0  0  0
 24 25  1  0  0  0  0
 24 28  1  0  0  0  0
 25 26  2  0  0  0  0
 25 29  1  0  0  0  0
 26 17  1  0  0  0  0
 26 30  1  0  0  0  0
 31 33  2  0  0  0  0
 31 34  2  0  0  0  0
 32 35  2  0  0  0  0
 32 36  2  0  0  0  0
M  END
>  <activity>
Active

$$$$
mutag_d162
 OpenBabel01191712022D

 30 31  0  0  0  0  0  0  0  0999 V2000
    2.5981    1.5000    0.0000 C   0  0  0  0  0  0  0  0  0  0  0  0
    2.5981    0.5000    0.0000 C   0  0  0  0  0  0  0  0  0  0  0  0
    1.7321   -0.0000    0.0000 C   0  0  0  0  0  0  0  0  0  0  0  0
    0.8660    0.5000    0.0000 C   0  0  0  0  0  0  0  0  0  0  0  0
    0.8660    1.5000    0.0000 C   0  0  0  0  0  0  0  0  0  0  0  0
    1.7321    2.0000    0.0000 C   0  0  0  0  0  0  0  0  0  0  0  0
    3.4641   -0.0000    0.0000 H   0  0  0  0  0  0  0  0  0  0  0  0
    1.7321   -1.0000    0.0000 H   0  0  0  0  0  0  0  0  0  0  0  0
    0.0000    2.0000    0.0000 H   0  0  0  0  0  0  0  0  0  0  0  0
    0.0000   -0.0000    0.0000 C   0  0  0  0  0  0  0  0  0  0  0  0
   -0.0000   -1.0000    0.0000 C   0  0  0  0  0  0  0  0  0  0  0  0
   -0.8660   -1.5000    0.0000 C   0  0  0  0  0  0  0  0  0  0  0  0
   -1.7321   -1.0000    0.0000 C   0  0  0  0  0  0  0  0  0  0  0  0
   -1.7321    0.0000    0.0000 C   0  0  0  0  0  0  0  0  0  0  0  0
   -0.8660    0.5000    0.0000 C   0  0  0  0  0  0  0  0  0  0  0  0
    0.8660   -1.5000    0.0000 H   0  0  0  0  0  0  0  0  0  0  0  0
   -0.8660   -2.5000    0.0000 H   0  0  0  0  0  0  0  0  0  0  0  0
   -0.8660    1.5000    0.0000 H   0  0  0  0  0  0  0  0  0  0  0  0
   -2.5981    0.5000    0.0000 N   0  0  0  0  0  0  0  0  0  0  0  0
   -2.5981   -1.5000    0.0000 N   0  0  0  0  0  0  0  0  0  0  0  0
    1.7321    3.0000    0.0000 N   0  0  0  0  0  0  0  0  0  0  0  0
    3.4641    2.0000    0.0000 N   0  0  0  0  0  0  0  0  0  0  0  0
    4.3301    1.5000    0.0000 O   0  0  0  0  0  0  0  0  0  0  0  0
    3.4641    3.0000    0.0000 O   0  0  0  0  0  0  0  0  0  0  0  0
    2.5981    3.5000    0.0000 O   0  0  0  0  0  0  0  0  0  0  0  0
    0.8660    3.5000    0.0000 O   0  0  0  0  0  0  0  0  0  0  0  0
   -2.5981    1.5000    0.0000 O   0  0  0  0  0  0  0  0  0  0  0  0
   -3.4641    0.0000    0.0000 O   0  0  0  0  0  0  0  0  0  0  0  0
   -3.4641   -1.0000    0.0000 O   0  0  0  0  0  0  0  0  0  0  0  0
   -2.5981   -2.5000    0.0000 O   0  0  0  0  0  0  0  0  0  0  0  0
  1  2  2  0  0  0  0
  1 22  1  0  0  0  0
  2  3  1  0  0  0  0
  2  7  1  0  0  0  0
  3  4  2  0  0  0  0
  3  8  1  0  0  0  0
  4  5  1  0  0  0  0
  4 10  1  0  0  0  0
  5  6  2  0  0  0  0
  5  9  1  0  0  0  0
  6  1  1  0  0  0  0
  6 21  1  0  0  0  0
 10 11  2  0  0  0  0
 11 12  1  0  0  0  0
 11 16  1  0  0  0  0
 12 13  2  0  0  0  0
 12 17  1  0  0  0  0
 13 14  1  0  0  0  0
 13 20  1  0  0  0  0
 14 15  2  0  0  0  0
 14 19  1  0  0  0  0
 15 10  1  0  0  0  0
 15 18  1  0  0  0  0
 19 27  2  0  0  0  0
 19 28  2  0  0  0  0
 20 29  2  0  0  0  0
 20 30  2  0  0  0  0
 21 25  2  0  0  0  0
 21 26  2  0  0  0  0
 22 23  2  0  0  0  0
 22 24  2  0  0  0  0
M  END
>  <activity>
Active

$$$$
mutag_d163
 OpenBabel01191712022D

 30 33  0  0  0  0  0  0  0  0999 V2000
    3.2656    0.9172    0.0000 C   0  0  0  0  0  0  0  0  0  0  0  0
    3.2587   -0.0287    0.0000 C   0  0  0  0  0  0  0  0  0  0  0  0
    2.4411   -0.4926    0.0000 C   0  0  0  0  0  0  0  0  0  0  0  0
    1.6304   -0.0105    0.0000 C   0  0  0  0  0  0  0  0  0  0  0  0
    1.6352    0.9278    0.0000 C   0  0  0  0  0  0  0  0  0  0  0  0
    2.4528    1.3917    0.0000 C   0  0  0  0  0  0  0  0  0  0  0  0
    4.0687   -0.5044    0.0000 H   0  0  0  0  0  0  0  0  0  0  0  0
    2.4586    2.3309    0.0000 H   0  0  0  0  0  0  0  0  0  0  0  0
    2.4335   -1.4260    0.0000 C   0  0  0  0  0  0  0  0  0  0  0  0
    1.6204   -1.8874    0.0000 C   0  0  0  0  0  0  0  0  0  0  0  0
    0.8059   -1.4204    0.0000 C   0  0  0  0  0  0  0  0  0  0  0  0
    0.8173   -0.4719    0.0000 C   0  0  0  0  0  0  0  0  0  0  0  0
    3.2433   -1.9020    0.0000 H   0  0  0  0  0  0  0  0  0  0  0  0
    1.6183   -2.8267    0.0000 H   0  0  0  0  0  0  0  0  0  0  0  0
    0.0000   -0.0000    0.0000 C   0  0  0  0  0  0  0  0  0  0  0  0
    0.0170    0.9387    0.0000 C   0  0  0  0  0  0  0  0  0  0  0  0
    0.8301    1.4001    0.0000 C   0  0  0  0  0  0  0  0  0  0  0  0
   -0.7904    1.4188    0.0000 H   0  0  0  0  0  0  0  0  0  0  0  0
    0.8369    2.3394    0.0000 H   0  0  0  0  0  0  0  0  0  0  0  0
   -0.0117   -1.8843    0.0000 C   0  0  0  0  0  0  0  0  0  0  0  0
   -0.8124   -1.4094    0.0000 C   0  0  0  0  0  0  0  0  0  0  0  0
   -0.8176   -0.4639    0.0000 C   0  0  0  0  0  0  0  0  0  0  0  0
   -0.0185   -2.8236    0.0000 H   0  0  0  0  0  0  0  0  0  0  0  0
   -1.6306    0.0066    0.0000 H   0  0  0  0  0  0  0  0  0  0  0  0
   -1.6199   -1.8724    0.0000 N   0  0  0  0  0  0  0  0  0  0  0  0
    4.0821    1.3853    0.0000 N   0  0  0  0  0  0  0  0  0  0  0  0
   -2.5371   -1.7134    0.0000 O   0  0  0  0  0  0  0  0  0  0  0  0
   -1.2991   -2.7462    0.0000 O   0  0  0  0  0  0  0  0  0  0  0  0
    4.8957    0.9122    0.0000 O   0  0  0  0  0  0  0  0  0  0  0  0
    4.0850    2.3264    0.0000 O   0  0  0  0  0  0  0  0  0  0  0  0
  1  2  2  0  0  0  0
  1 26  1  0  0  0  0
  2  3  1  0  0  0  0
  2  7  1  0  0  0  0
  3  4  2  0  0  0  0
  3  9  1  0  0  0  0
  4  5  1  0  0  0  0
  5  6  2  0  0  0  0
  6  1  1  0  0  0  0
  6  8  1  0  0  0  0
  9 10  2  0  0  0  0
  9 13  1  0  0  0  0
 10 11  1  0  0  0  0
 10 14  1  0  0  0  0
 11 12  2  0  0  0  0
 11 20  1  0  0  0  0
 12  4  1  0  0  0  0
 12 15  1  0  0  0  0
 15 16  1  0  0  0  0
 16 17  2  0  0  0  0
 16 18  1  0  0  0  0
 17  5  1  0  0  0  0
 17 19  1  0  0  0  0
 20 21  2  0  0  0  0
 20 23  1  0  0  0  0
 21 22  1  0  0  0  0
 21 25  1  0  0  0  0
 22 15  2  0  0  0  0
 22 24  1  0  0  0  0
 25 27  2  0  0  0  0
 25 28  2  0  0  0  0
 26 29  2  0  0  0  0
 26 30  2  0  0  0  0
M  END
>  <activity>
Active

$$$$
mutag_d164
 OpenBabel01191712022D

 30 33  0  0  0  0  0  0  0  0999 V2000
    3.2660    0.9173    0.0000 C   0  0  0  0  0  0  0  0  0  0  0  0
    3.2591   -0.0288    0.0000 C   0  0  0  0  0  0  0  0  0  0  0  0
    2.4414   -0.4927    0.0000 C   0  0  0  0  0  0  0  0  0  0  0  0
    1.6306   -0.0105    0.0000 C   0  0  0  0  0  0  0  0  0  0  0  0
    1.6354    0.9279    0.0000 C   0  0  0  0  0  0  0  0  0  0  0  0
    2.4531    1.3918    0.0000 C   0  0  0  0  0  0  0  0  0  0  0  0
    4.0691   -0.5045    0.0000 H   0  0  0  0  0  0  0  0  0  0  0  0
    2.4588    2.3312    0.0000 H   0  0  0  0  0  0  0  0  0  0  0  0
    2.4338   -1.4262    0.0000 C   0  0  0  0  0  0  0  0  0  0  0  0
    1.6206   -1.8876    0.0000 C   0  0  0  0  0  0  0  0  0  0  0  0
    0.8060   -1.4206    0.0000 C   0  0  0  0  0  0  0  0  0  0  0  0
    0.8174   -0.4719    0.0000 C   0  0  0  0  0  0  0  0  0  0  0  0
    3.2436   -1.9022    0.0000 H   0  0  0  0  0  0  0  0  0  0  0  0
    1.6185   -2.8270    0.0000 H   0  0  0  0  0  0  0  0  0  0  0  0
    0.0000   -0.0000    0.0000 C   0  0  0  0  0  0  0  0  0  0  0  0
    0.0170    0.9388    0.0000 C   0  0  0  0  0  0  0  0  0  0  0  0
    0.8302    1.4002    0.0000 C   0  0  0  0  0  0  0  0  0  0  0  0
   -0.7905    1.4189    0.0000 H   0  0  0  0  0  0  0  0  0  0  0  0
    0.8370    2.3396    0.0000 H   0  0  0  0  0  0  0  0  0  0  0  0
   -0.0117   -1.8845    0.0000 C   0  0  0  0  0  0  0  0  0  0  0  0
   -0.8124   -1.4096    0.0000 C   0  0  0  0  0  0  0  0  0  0  0  0
   -0.8177   -0.4639    0.0000 C   0  0  0  0  0  0  0  0  0  0  0  0
   -1.6274   -1.8768    0.0000 H   0  0  0  0  0  0  0  0  0  0  0  0
    4.0810    1.3845    0.0000 H   0  0  0  0  0  0  0  0  0  0  0  0
   -1.6314    0.0069    0.0000 N   0  0  0  0  0  0  0  0  0  0  0  0
   -0.0207   -2.8154    0.0000 N   0  0  0  0  0  0  0  0  0  0  0  0
   -2.0851    0.8304    0.0000 O   0  0  0  0  0  0  0  0  0  0  0  0
   -2.1177   -0.7977    0.0000 O   0  0  0  0  0  0  0  0  0  0  0  0
   -0.7210   -3.4288    0.0000 O   0  0  0  0  0  0  0  0  0  0  0  0
    0.8607   -3.1152    0.0000 O   0  0  0  0  0  0  0  0  0  0  0  0
  1  2  2  0  0  0  0
  1 24  1  0  0  0  0
  2  3  1  0  0  0  0
  2  7  1  0  0  0  0
  3  4  2  0  0  0  0
  3  9  1  0  0  0  0
  4  5  1  0  0  0  0
  5  6  2  0  0  0  0
  6  1  1  0  0  0  0
  6  8  1  0  0  0  0
  9 10  2  0  0  0  0
  9 13  1  0  0  0  0
 10 11  1  0  0  0  0
 10 14  1  0  0  0  0
 11 12  2  0  0  0  0
 11 20  1  0  0  0  0
 12  4  1  0  0  0  0
 12 15  1  0  0  0  0
 15 16  1  0  0  0  0
 16 17  2  0  0  0  0
 16 18  1  0  0  0  0
 17  5  1  0  0  0  0
 17 19  1  0  0  0  0
 20 21  2  0  0  0  0
 20 26  1  0  0  0  0
 21 22  1  0  0  0  0
 21 23  1  0  0  0  0
 22 15  2  0  0  0  0
 22 25  1  0  0  0  0
 25 27  2  0  0  0  0
 25 28  2  0  0  0  0
 26 29  2  0  0  0  0
 26 30  2  0  0  0  0
M  END
>  <activity>
Active

$$$$
mutag_d165
 OpenBabel01191712022D

 28 31  0  0  0  0  0  0  0  0999 V2000
   -0.0006   -2.8292    0.0000 C   0  0  0  0  0  0  0  0  0  0  0  0
   -0.8174   -2.3576    0.0000 C   0  0  0  0  0  0  0  0  0  0  0  0
   -0.8172   -1.4147    0.0000 C   0  0  0  0  0  0  0  0  0  0  0  0
   -0.0002   -0.9434    0.0000 C   0  0  0  0  0  0  0  0  0  0  0  0
    0.8162   -1.4150    0.0000 C   0  0  0  0  0  0  0  0  0  0  0  0
    0.8160   -2.3579    0.0000 C   0  0  0  0  0  0  0  0  0  0  0  0
   -0.0008   -3.8087    0.0000 H   0  0  0  0  0  0  0  0  0  0  0  0
   -1.6657   -2.8472    0.0000 H   0  0  0  0  0  0  0  0  0  0  0  0
    1.6641   -2.8478    0.0000 H   0  0  0  0  0  0  0  0  0  0  0  0
   -1.6336   -0.9431    0.0000 C   0  0  0  0  0  0  0  0  0  0  0  0
   -1.6334    0.0003    0.0000 C   0  0  0  0  0  0  0  0  0  0  0  0
   -0.8169    0.4716    0.0000 C   0  0  0  0  0  0  0  0  0  0  0  0
    0.0000   -0.0000    0.0000 C   0  0  0  0  0  0  0  0  0  0  0  0
   -2.4819   -1.4326    0.0000 H   0  0  0  0  0  0  0  0  0  0  0  0
   -2.4816    0.4902    0.0000 H   0  0  0  0  0  0  0  0  0  0  0  0
   -0.8168    1.4511    0.0000 H   0  0  0  0  0  0  0  0  0  0  0  0
    1.6332   -0.9437    0.0000 C   0  0  0  0  0  0  0  0  0  0  0  0
    1.6334   -0.0003    0.0000 C   0  0  0  0  0  0  0  0  0  0  0  0
    2.4505    0.4710    0.0000 C   0  0  0  0  0  0  0  0  0  0  0  0
    3.2669   -0.0007    0.0000 C   0  0  0  0  0  0  0  0  0  0  0  0
    3.2667   -0.9441    0.0000 C   0  0  0  0  0  0  0  0  0  0  0  0
    2.4501   -1.4153    0.0000 C   0  0  0  0  0  0  0  0  0  0  0  0
    2.4506    1.4504    0.0000 H   0  0  0  0  0  0  0  0  0  0  0  0
    4.1152    0.4889    0.0000 H   0  0  0  0  0  0  0  0  0  0  0  0
    2.4500   -2.3948    0.0000 H   0  0  0  0  0  0  0  0  0  0  0  0
    4.0831   -1.4156    0.0000 N   0  0  0  0  0  0  0  0  0  0  0  0
    3.7916   -2.3122    0.0000 O   0  0  0  0  0  0  0  0  0  0  0  0
    5.0054   -1.2197    0.0000 O   0  0  0  0  0  0  0  0  0  0  0  0
  1  2  2  0  0  0  0
  1  7  1  0  0  0  0
  2  3  1  0  0  0  0
  2  8  1  0  0  0  0
  3  4  2  0  0  0  0
  3 10  1  0  0  0  0
  4  5  1  0  0  0  0
  5  6  2  0  0  0  0
  6  1  1  0  0  0  0
  6  9  1  0  0  0  0
 10 11  2  0  0  0  0
 10 14  1  0  0  0  0
 11 12  1  0  0  0  0
 11 15  1  0  0  0  0
 12 13  2  0  0  0  0
 12 16  1  0  0  0  0
 13  4  1  0  0  0  0
 17 18  2  0  0  0  0
 17  5  1  0  0  0  0
 18 19  1  0  0  0  0
 18 13  1  0  0  0  0
 19 20  2  0  0  0  0
 19 23  1  0  0  0  0
 20 21  1  0  0  0  0
 20 24  1  0  0  0  0
 21 22  2  0  0  0  0
 21 26  1  0  0  0  0
 22 17  1  0  0  0  0
 22 25  1  0  0  0  0
 26 27  2  0  0  0  0
 26 28  2  0  0  0  0
M  END
>  <activity>
Active

$$$$
mutag_d166
 OpenBabel01191712022D

 34 37  0  0  0  0  0  0  0  0999 V2000
    3.2920    0.9246    0.0000 C   0  0  0  0  0  0  0  0  0  0  0  0
    3.2850   -0.0290    0.0000 C   0  0  0  0  0  0  0  0  0  0  0  0
    2.4608   -0.4966    0.0000 C   0  0  0  0  0  0  0  0  0  0  0  0
    1.6436   -0.0106    0.0000 C   0  0  0  0  0  0  0  0  0  0  0  0
    1.6484    0.9353    0.0000 C   0  0  0  0  0  0  0  0  0  0  0  0
    2.4726    1.4029    0.0000 C   0  0  0  0  0  0  0  0  0  0  0  0
    4.1155    1.3919    0.0000 H   0  0  0  0  0  0  0  0  0  0  0  0
    4.1015   -0.5085    0.0000 H   0  0  0  0  0  0  0  0  0  0  0  0
    2.4784    2.3497    0.0000 H   0  0  0  0  0  0  0  0  0  0  0  0
    2.4532   -1.4375    0.0000 C   0  0  0  0  0  0  0  0  0  0  0  0
    1.6335   -1.9026    0.0000 C   0  0  0  0  0  0  0  0  0  0  0  0
    0.8124   -1.4319    0.0000 C   0  0  0  0  0  0  0  0  0  0  0  0
    0.8239   -0.4757    0.0000 C   0  0  0  0  0  0  0  0  0  0  0  0
    3.2695   -1.9174    0.0000 H   0  0  0  0  0  0  0  0  0  0  0  0
    1.6314   -2.8495    0.0000 H   0  0  0  0  0  0  0  0  0  0  0  0
    0.0000    0.0000    0.0000 C   0  0  0  0  0  0  0  0  0  0  0  0
    0.0171    0.9463    0.0000 C   0  0  0  0  0  0  0  0  0  0  0  0
    0.8368    1.4114    0.0000 C   0  0  0  0  0  0  0  0  0  0  0  0
   -0.7968    1.4302    0.0000 H   0  0  0  0  0  0  0  0  0  0  0  0
    0.8436    2.3582    0.0000 H   0  0  0  0  0  0  0  0  0  0  0  0
   -0.0118   -1.8995    0.0000 C   0  0  0  0  0  0  0  0  0  0  0  0
   -0.8189   -1.4208    0.0000 C   0  0  0  0  0  0  0  0  0  0  0  0
   -0.8242   -0.4676    0.0000 C   0  0  0  0  0  0  0  0  0  0  0  0
   -1.6404   -1.8917    0.0000 H   0  0  0  0  0  0  0  0  0  0  0  0
   -1.6444    0.0070    0.0000 N   0  0  0  0  0  0  0  0  0  0  0  0
   -2.1017    0.8370    0.0000 O   0  0  0  0  0  0  0  0  0  0  0  0
   -2.1345   -0.8040    0.0000 O   0  0  0  0  0  0  0  0  0  0  0  0
   -0.0208   -2.8378    0.0000 O   0  0  0  0  0  0  0  0  0  0  0  0
   -0.9149   -3.1228    0.0000 C   0  0  0  0  0  0  0  0  0  0  0  0
   -1.6087   -2.4910    0.0000 O   0  0  0  0  0  0  0  0  0  0  0  0
   -1.1151   -4.0396    0.0000 C   0  0  0  0  0  0  0  0  0  0  0  0
   -0.8301   -4.9336    0.0000 H   0  0  0  0  0  0  0  0  0  0  0  0
   -0.1983   -4.2398    0.0000 H   0  0  0  0  0  0  0  0  0  0  0  0
   -2.0091   -4.3245    0.0000 H   0  0  0  0  0  0  0  0  0  0  0  0
  1  2  2  0  0  0  0
  1  7  1  0  0  0  0
  2  3  1  0  0  0  0
  2  8  1  0  0  0  0
  3  4  2  0  0  0  0
  3 10  1  0  0  0  0
  4  5  1  0  0  0  0
  5  6  2  0  0  0  0
  6  1  1  0  0  0  0
  6  9  1  0  0  0  0
 10 11  2  0  0  0  0
 10 14  1  0  0  0  0
 11 12  1  0  0  0  0
 11 15  1  0  0  0  0
 12 13  2  0  0  0  0
 12 21  1  0  0  0  0
 13  4  1  0  0  0  0
 13 16  1  0  0  0  0
 16 17  1  0  0  0  0
 17 18  2  0  0  0  0
 17 19  1  0  0  0  0
 18  5  1  0  0  0  0
 18 20  1  0  0  0  0
 21 22  2  0  0  0  0
 21 28  1  0  0  0  0
 22 23  1  0  0  0  0
 22 24  1  0  0  0  0
 23 16  2  0  0  0  0
 23 25  1  0  0  0  0
 25 26  2  0  0  0  0
 25 27  2  0  0  0  0
 28 29  1  0  0  0  0
 29 30  2  0  0  0  0
 29 31  1  0  0  0  0
 31 32  1  0  0  0  0
 31 33  1  0  0  0  0
 31 34  1  0  0  0  0
M  END
>  <activity>
Active

$$$$
mutag_d167
 OpenBabel01191712022D

 30 33  0  0  0  0  0  0  0  0999 V2000
    3.2631    0.9165    0.0000 C   0  0  0  0  0  0  0  0  0  0  0  0
    3.2562   -0.0287    0.0000 C   0  0  0  0  0  0  0  0  0  0  0  0
    2.4392   -0.4922    0.0000 C   0  0  0  0  0  0  0  0  0  0  0  0
    1.6291   -0.0105    0.0000 C   0  0  0  0  0  0  0  0  0  0  0  0
    1.6339    0.9270    0.0000 C   0  0  0  0  0  0  0  0  0  0  0  0
    2.4509    1.3906    0.0000 C   0  0  0  0  0  0  0  0  0  0  0  0
    4.0794    1.3797    0.0000 H   0  0  0  0  0  0  0  0  0  0  0  0
    2.4567    2.3291    0.0000 H   0  0  0  0  0  0  0  0  0  0  0  0
    2.4316   -1.4249    0.0000 C   0  0  0  0  0  0  0  0  0  0  0  0
    1.6191   -1.8859    0.0000 C   0  0  0  0  0  0  0  0  0  0  0  0
    0.8053   -1.4193    0.0000 C   0  0  0  0  0  0  0  0  0  0  0  0
    0.8167   -0.4715    0.0000 C   0  0  0  0  0  0  0  0  0  0  0  0
    3.2408   -1.9005    0.0000 H   0  0  0  0  0  0  0  0  0  0  0  0
    1.6170   -2.8245    0.0000 H   0  0  0  0  0  0  0  0  0  0  0  0
    0.0000   -0.0000    0.0000 C   0  0  0  0  0  0  0  0  0  0  0  0
    0.0170    0.9380    0.0000 C   0  0  0  0  0  0  0  0  0  0  0  0
    0.8294    1.3990    0.0000 C   0  0  0  0  0  0  0  0  0  0  0  0
   -0.7898    1.4176    0.0000 H   0  0  0  0  0  0  0  0  0  0  0  0
    0.8362    2.3375    0.0000 H   0  0  0  0  0  0  0  0  0  0  0  0
   -0.0117   -1.8828    0.0000 C   0  0  0  0  0  0  0  0  0  0  0  0
   -0.8117   -1.4083    0.0000 C   0  0  0  0  0  0  0  0  0  0  0  0
   -0.8170   -0.4635    0.0000 C   0  0  0  0  0  0  0  0  0  0  0  0
   -0.0185   -2.8214    0.0000 H   0  0  0  0  0  0  0  0  0  0  0  0
   -1.6260   -1.8751    0.0000 H   0  0  0  0  0  0  0  0  0  0  0  0
   -1.6300    0.0069    0.0000 N   0  0  0  0  0  0  0  0  0  0  0  0
    4.0661   -0.5044    0.0000 N   0  0  0  0  0  0  0  0  0  0  0  0
   -2.0833    0.8296    0.0000 O   0  0  0  0  0  0  0  0  0  0  0  0
   -2.1158   -0.7970    0.0000 O   0  0  0  0  0  0  0  0  0  0  0  0
    4.0592   -1.4437    0.0000 O   0  0  0  0  0  0  0  0  0  0  0  0
    4.8830   -0.0408    0.0000 O   0  0  0  0  0  0  0  0  0  0  0  0
  1  2  2  0  0  0  0
  1  7  1  0  0  0  0
  2  3  1  0  0  0  0
  2 26  1  0  0  0  0
  3  4  2  0  0  0  0
  3  9  1  0  0  0  0
  4  5  1  0  0  0  0
  5  6  2  0  0  0  0
  6  1  1  0  0  0  0
  6  8  1  0  0  0  0
  9 10  2  0  0  0  0
  9 13  1  0  0  0  0
 10 11  1  0  0  0  0
 10 14  1  0  0  0  0
 11 12  2  0  0  0  0
 11 20  1  0  0  0  0
 12  4  1  0  0  0  0
 12 15  1  0  0  0  0
 15 16  1  0  0  0  0
 16 17  2  0  0  0  0
 16 18  1  0  0  0  0
 17  5  1  0  0  0  0
 17 19  1  0  0  0  0
 20 21  2  0  0  0  0
 20 23  1  0  0  0  0
 21 22  1  0  0  0  0
 21 24  1  0  0  0  0
 22 15  2  0  0  0  0
 22 25  1  0  0  0  0
 25 27  2  0  0  0  0
 25 28  2  0  0  0  0
 26 29  2  0  0  0  0
 26 30  2  0  0  0  0
M  END
>  <activity>
Active

$$$$
mutag_d168
 OpenBabel01191712022D

 18 18  0  0  0  0  0  0  0  0999 V2000
   -0.0000   -0.0000    0.0000 C   0  0  0  0  0  0  0  0  0  0  0  0
   -0.8660    0.5000    0.0000 C   0  0  0  0  0  0  0  0  0  0  0  0
   -0.8660    1.5000    0.0000 C   0  0  0  0  0  0  0  0  0  0  0  0
   -0.0000    2.0000    0.0000 C   0  0  0  0  0  0  0  0  0  0  0  0
    0.8660    1.5000    0.0000 C   0  0  0  0  0  0  0  0  0  0  0  0
    0.8660    0.5000    0.0000 C   0  0  0  0  0  0  0  0  0  0  0  0
   -0.0000   -1.0000    0.0000 H   0  0  0  0  0  0  0  0  0  0  0  0
   -1.7321    2.0000    0.0000 H   0  0  0  0  0  0  0  0  0  0  0  0
    0.0000    3.0000    0.0000 H   0  0  0  0  0  0  0  0  0  0  0  0
    1.7321    0.0000    0.0000 H   0  0  0  0  0  0  0  0  0  0  0  0
    1.7321    2.0000    0.0000 O   0  0  0  0  0  0  0  0  0  0  0  0
    2.5981    1.5000    0.0000 C   0  0  0  0  0  0  0  0  0  0  0  0
    3.5981    1.5000    0.0000 H   0  0  0  0  0  0  0  0  0  0  0  0
    3.0981    2.3660    0.0000 H   0  0  0  0  0  0  0  0  0  0  0  0
    2.5981    0.5000    0.0000 H   0  0  0  0  0  0  0  0  0  0  0  0
   -1.7321   -0.0000    0.0000 N   0  0  0  0  0  0  0  0  0  0  0  0
   -2.5981    0.5000    0.0000 O   0  0  0  0  0  0  0  0  0  0  0  0
   -1.7321   -1.0000    0.0000 O   0  0  0  0  0  0  0  0  0  0  0  0
  1  2  2  0  0  0  0
  1  7  1  0  0  0  0
  2  3  1  0  0  0  0
  2 16  1  0  0  0  0
  3  4  2  0  0  0  0
  3  8  1  0  0  0  0
  4  5  1  0  0  0  0
  4  9  1  0  0  0  0
  5  6  2  0  0  0  0
  5 11  1  0  0  0  0
  6  1  1  0  0  0  0
  6 10  1  0  0  0  0
 11 12  1  0  0  0  0
 12 13  1  0  0  0  0
 12 14  1  0  0  0  0
 12 15  1  0  0  0  0
 16 17  2  0  0  0  0
 16 18  2  0  0  0  0
M  END
>  <activity>
Inactive

$$$$
mutag_d169
 OpenBabel01191712022D

 16 16  0  0  0  0  0  0  0  0999 V2000
   -0.0000   -0.0000    0.0000 C   0  0  0  0  0  0  0  0  0  0  0  0
   -0.8660    0.5000    0.0000 C   0  0  0  0  0  0  0  0  0  0  0  0
   -0.8660    1.5000    0.0000 C   0  0  0  0  0  0  0  0  0  0  0  0
   -0.0000    2.0000    0.0000 C   0  0  0  0  0  0  0  0  0  0  0  0
    0.8660    1.5000    0.0000 C   0  0  0  0  0  0  0  0  0  0  0  0
    0.8660    0.5000    0.0000 C   0  0  0  0  0  0  0  0  0  0  0  0
   -0.0000   -1.0000    0.0000 H   0  0  0  0  0  0  0  0  0  0  0  0
   -1.7321    2.0000    0.0000 H   0  0  0  0  0  0  0  0  0  0  0  0
    1.7321    0.0000    0.0000 H   0  0  0  0  0  0  0  0  0  0  0  0
    1.7321    2.0000    0.0000 F   0  0  0  0  0  0  0  0  0  0  0  0
   -0.0000    3.0000    0.0000 N   0  0  0  0  0  0  0  0  0  0  0  0
   -1.7321   -0.0000    0.0000 N   0  0  0  0  0  0  0  0  0  0  0  0
    0.8660    3.5000    0.0000 O   0  0  0  0  0  0  0  0  0  0  0  0
   -0.8660    3.5000    0.0000 O   0  0  0  0  0  0  0  0  0  0  0  0
   -2.5981    0.5000    0.0000 O   0  0  0  0  0  0  0  0  0  0  0  0
   -1.7321   -1.0000    0.0000 O   0  0  0  0  0  0  0  0  0  0  0  0
  1  2  2  0  0  0  0
  1  7  1  0  0  0  0
  2  3  1  0  0  0  0
  2 12  1  0  0  0  0
  3  4  2  0  0  0  0
  3  8  1  0  0  0  0
  4  5  1  0  0  0  0
  4 11  1  0  0  0  0
  5  6  2  0  0  0  0
  5 10  1  0  0  0  0
  6  1  1  0  0  0  0
  6  9  1  0  0  0  0
 11 13  2  0  0  0  0
 11 14  2  0  0  0  0
 12 15  2  0  0  0  0
 12 16  2  0  0  0  0
M  END
>  <activity>
Active

$$$$
mutag_d17
 OpenBabel01191712022D

 18 18  0  0  0  0  0  0  0  0999 V2000
   -0.0000   -0.0000    0.0000 C   0  0  0  0  0  0  0  0  0  0  0  0
   -0.8660    0.5000    0.0000 C   0  0  0  0  0  0  0  0  0  0  0  0
   -0.8660    1.5000    0.0000 C   0  0  0  0  0  0  0  0  0  0  0  0
   -0.0000    2.0000    0.0000 C   0  0  0  0  0  0  0  0  0  0  0  0
    0.8660    1.5000    0.0000 C   0  0  0  0  0  0  0  0  0  0  0  0
    0.8660    0.5000    0.0000 C   0  0  0  0  0  0  0  0  0  0  0  0
   -0.0000   -1.0000    0.0000 H   0  0  0  0  0  0  0  0  0  0  0  0
   -1.7321    0.0000    0.0000 H   0  0  0  0  0  0  0  0  0  0  0  0
    1.7321    0.0000    0.0000 H   0  0  0  0  0  0  0  0  0  0  0  0
    0.0000    3.0000    0.0000 N   0  0  0  0  0  0  0  0  0  0  0  0
    0.8660    3.5000    0.0000 O   0  0  0  0  0  0  0  0  0  0  0  0
   -0.8660    3.5000    0.0000 O   0  0  0  0  0  0  0  0  0  0  0  0
    1.7321    2.0000    0.0000 N   0  0  0  0  0  0  0  0  0  0  0  0
   -1.7321    2.0000    0.0000 N   0  0  0  0  0  0  0  0  0  0  0  0
    2.5981    1.5000    0.0000 H   0  0  0  0  0  0  0  0  0  0  0  0
    1.7321    3.0000    0.0000 H   0  0  0  0  0  0  0  0  0  0  0  0
   -1.7321    3.0000    0.0000 H   0  0  0  0  0  0  0  0  0  0  0  0
   -2.5981    1.5000    0.0000 H   0  0  0  0  0  0  0  0  0  0  0  0
  1  2  2  0  0  0  0
  1  7  1  0  0  0  0
  2  3  1  0  0  0  0
  2  8  1  0  0  0  0
  3  4  2  0  0  0  0
  3 14  1  0  0  0  0
  4  5  1  0  0  0  0
  4 10  1  0  0  0  0
  5  6  2  0  0  0  0
  6  1  1  0  0  0  0
  6  9  1  0  0  0  0
 10 12  2  0  0  0  0
 11 10  2  0  0  0  0
 13  5  1  0  0  0  0
 13 15  1  0  0  0  0
 13 16  1  0  0  0  0
 14 17  1  0  0  0  0
 14 18  1  0  0  0  0
M  END
>  <activity>
Inactive

$$$$
mutag_d170
 OpenBabel01191712022D

 26 28  0  0  0  0  0  0  0  0999 V2000
   -3.4641    1.0000    0.0000 C   0  0  0  0  0  0  0  0  0  0  0  0
   -2.5981    1.5000    0.0000 C   0  0  0  0  0  0  0  0  0  0  0  0
   -1.7321    1.0000    0.0000 C   0  0  0  0  0  0  0  0  0  0  0  0
   -1.7321    0.0000    0.0000 C   0  0  0  0  0  0  0  0  0  0  0  0
   -2.5981   -0.5000    0.0000 C   0  0  0  0  0  0  0  0  0  0  0  0
   -3.4641    0.0000    0.0000 C   0  0  0  0  0  0  0  0  0  0  0  0
   -4.3301    1.5000    0.0000 H   0  0  0  0  0  0  0  0  0  0  0  0
   -2.5981    2.5000    0.0000 H   0  0  0  0  0  0  0  0  0  0  0  0
   -2.5981   -1.5000    0.0000 H   0  0  0  0  0  0  0  0  0  0  0  0
   -4.3301   -0.5000    0.0000 H   0  0  0  0  0  0  0  0  0  0  0  0
   -0.8660    1.5000    0.0000 N   0  0  0  0  0  0  0  0  0  0  0  0
    0.0000    1.0000    0.0000 C   0  0  0  0  0  0  0  0  0  0  0  0
    0.0000    0.0000    0.0000 C   0  0  0  0  0  0  0  0  0  0  0  0
   -0.8660   -0.5000    0.0000 N   0  0  0  0  0  0  0  0  0  0  0  0
    0.8660    1.5000    0.0000 C   0  0  0  0  0  0  0  0  0  0  0  0
    1.7321    1.0000    0.0000 C   0  0  0  0  0  0  0  0  0  0  0  0
    1.7321   -0.0000    0.0000 C   0  0  0  0  0  0  0  0  0  0  0  0
    0.8660   -0.5000    0.0000 C   0  0  0  0  0  0  0  0  0  0  0  0
    0.8660    2.5000    0.0000 H   0  0  0  0  0  0  0  0  0  0  0  0
    2.5981    1.5000    0.0000 H   0  0  0  0  0  0  0  0  0  0  0  0
    2.5981   -0.5000    0.0000 H   0  0  0  0  0  0  0  0  0  0  0  0
   -0.8660   -1.5000    0.0000 H   0  0  0  0  0  0  0  0  0  0  0  0
   -0.8660    2.5000    0.0000 H   0  0  0  0  0  0  0  0  0  0  0  0
    0.8660   -1.5000    0.0000 N   0  0  0  0  0  0  0  0  0  0  0  0
   -0.0000   -2.0000    0.0000 O   0  0  0  0  0  0  0  0  0  0  0  0
    1.7321   -2.0000    0.0000 O   0  0  0  0  0  0  0  0  0  0  0  0
  1  2  2  0  0  0  0
  1  7  1  0  0  0  0
  2  3  1  0  0  0  0
  2  8  1  0  0  0  0
  3  4  2  0  0  0  0
  3 11  1  0  0  0  0
  4  5  1  0  0  0  0
  5  6  2  0  0  0  0
  5  9  1  0  0  0  0
  6  1  1  0  0  0  0
  6 10  1  0  0  0  0
 11 12  1  0  0  0  0
 11 23  1  0  0  0  0
 12 13  2  0  0  0  0
 12 15  1  0  0  0  0
 13 14  1  0  0  0  0
 14  4  1  0  0  0  0
 14 22  1  0  0  0  0
 15 16  2  0  0  0  0
 15 19  1  0  0  0  0
 16 17  1  0  0  0  0
 16 20  1  0  0  0  0
 17 18  2  0  0  0  0
 17 21  1  0  0  0  0
 18 13  1  0  0  0  0
 18 24  1  0  0  0  0
 24 25  2  0  0  0  0
 24 26  2  0  0  0  0
M  END
>  <activity>
Active

$$$$
mutag_d171
 OpenBabel01191712022D

 30 31  0  0  0  0  0  0  0  0999 V2000
    3.3558   -1.9375    0.0000 C   0  0  0  0  0  0  0  0  0  0  0  0
    2.5169   -2.4219    0.0000 C   0  0  0  0  0  0  0  0  0  0  0  0
    1.6779   -1.9375    0.0000 C   0  0  0  0  0  0  0  0  0  0  0  0
    1.6779   -0.9687    0.0000 C   0  0  0  0  0  0  0  0  0  0  0  0
    2.5169   -0.4844    0.0000 C   0  0  0  0  0  0  0  0  0  0  0  0
    3.3558   -0.9687    0.0000 C   0  0  0  0  0  0  0  0  0  0  0  0
    2.5169   -3.3906    0.0000 H   0  0  0  0  0  0  0  0  0  0  0  0
    0.8390   -2.4219    0.0000 H   0  0  0  0  0  0  0  0  0  0  0  0
    4.1948   -0.4844    0.0000 H   0  0  0  0  0  0  0  0  0  0  0  0
    0.0000   -0.0000    0.0000 C   0  0  0  0  0  0  0  0  0  0  0  0
   -0.0000    0.9688    0.0000 C   0  0  0  0  0  0  0  0  0  0  0  0
   -0.8390    1.4531    0.0000 C   0  0  0  0  0  0  0  0  0  0  0  0
   -1.6779    0.9688    0.0000 C   0  0  0  0  0  0  0  0  0  0  0  0
   -1.6779   -0.0000    0.0000 C   0  0  0  0  0  0  0  0  0  0  0  0
   -0.8390   -0.4844    0.0000 C   0  0  0  0  0  0  0  0  0  0  0  0
    0.8390    1.4531    0.0000 H   0  0  0  0  0  0  0  0  0  0  0  0
   -0.8390    2.4219    0.0000 H   0  0  0  0  0  0  0  0  0  0  0  0
   -2.5169   -0.4844    0.0000 H   0  0  0  0  0  0  0  0  0  0  0  0
   -0.8390   -1.4531    0.0000 N   0  0  0  0  0  0  0  0  0  0  0  0
   -2.5169    1.4531    0.0000 N   0  0  0  0  0  0  0  0  0  0  0  0
    2.5169    0.4844    0.0000 N   0  0  0  0  0  0  0  0  0  0  0  0
    4.1948   -2.4219    0.0000 N   0  0  0  0  0  0  0  0  0  0  0  0
    4.1948   -3.3906    0.0000 O   0  0  0  0  0  0  0  0  0  0  0  0
    5.0338   -1.9375    0.0000 O   0  0  0  0  0  0  0  0  0  0  0  0
    3.3558    0.9688    0.0000 O   0  0  0  0  0  0  0  0  0  0  0  0
    1.6779    0.9687    0.0000 O   0  0  0  0  0  0  0  0  0  0  0  0
   -0.0000   -1.9375    0.0000 O   0  0  0  0  0  0  0  0  0  0  0  0
   -1.6779   -1.9375    0.0000 O   0  0  0  0  0  0  0  0  0  0  0  0
   -3.3558    0.9687    0.0000 O   0  0  0  0  0  0  0  0  0  0  0  0
   -2.5169    2.4219    0.0000 O   0  0  0  0  0  0  0  0  0  0  0  0
  1  2  2  0  0  0  0
  1 22  1  0  0  0  0
  2  3  1  0  0  0  0
  2  7  1  0  0  0  0
  3  4  2  0  0  0  0
  3  8  1  0  0  0  0
  4  5  1  0  0  0  0
  4 10  1  0  0  0  0
  5  6  2  0  0  0  0
  5 21  1  0  0  0  0
  6  1  1  0  0  0  0
  6  9  1  0  0  0  0
 10 11  2  0  0  0  0
 11 12  1  0  0  0  0
 11 16  1  0  0  0  0
 12 13  2  0  0  0  0
 12 17  1  0  0  0  0
 13 14  1  0  0  0  0
 13 20  1  0  0  0  0
 14 15  2  0  0  0  0
 14 18  1  0  0  0  0
 15 10  1  0  0  0  0
 15 19  1  0  0  0  0
 19 27  2  0  0  0  0
 19 28  2  0  0  0  0
 20 29  2  0  0  0  0
 20 30  2  0  0  0  0
 21 25  2  0  0  0  0
 21 26  2  0  0  0  0
 22 23  2  0  0  0  0
 22 24  2  0  0  0  0
M  END
>  <activity>
Active

$$$$
mutag_d172
 OpenBabel01191712022D

 17 18  0  0  0  0  0  0  0  0999 V2000
   -3.2709   -0.5000    0.0000 C   0  0  0  0  0  0  0  0  0  0  0  0
   -2.4049   -1.0000    0.0000 C   0  0  0  0  0  0  0  0  0  0  0  0
   -1.5388   -0.5000    0.0000 C   0  0  0  0  0  0  0  0  0  0  0  0
   -1.5388    0.5000    0.0000 C   0  0  0  0  0  0  0  0  0  0  0  0
   -2.4049    1.0000    0.0000 C   0  0  0  0  0  0  0  0  0  0  0  0
   -3.2709    0.5000    0.0000 C   0  0  0  0  0  0  0  0  0  0  0  0
   -0.5878   -0.8090    0.0000 N   0  0  0  0  0  0  0  0  0  0  0  0
    0.0000    0.0000    0.0000 N   0  0  0  0  0  0  0  0  0  0  0  0
   -0.5878    0.8090    0.0000 C   0  0  0  0  0  0  0  0  0  0  0  0
   -4.1369   -1.0000    0.0000 N   0  0  0  0  0  0  0  0  0  0  0  0
   -5.0029   -0.5000    0.0000 O   0  0  0  0  0  0  0  0  0  0  0  0
   -4.1369   -2.0000    0.0000 O   0  0  0  0  0  0  0  0  0  0  0  0
   -0.2788   -1.7601    0.0000 H   0  0  0  0  0  0  0  0  0  0  0  0
   -2.4049   -2.0000    0.0000 H   0  0  0  0  0  0  0  0  0  0  0  0
   -2.4049    2.0000    0.0000 H   0  0  0  0  0  0  0  0  0  0  0  0
   -4.1369    1.0000    0.0000 H   0  0  0  0  0  0  0  0  0  0  0  0
   -0.2788    1.7601    0.0000 H   0  0  0  0  0  0  0  0  0  0  0  0
  1  2  2  0  0  0  0
  1 10  1  0  0  0  0
  2  3  1  0  0  0  0
  2 14  1  0  0  0  0
  3  4  2  0  0  0  0
  3  7  1  0  0  0  0
  4  5  1  0  0  0  0
  4  9  1  0  0  0  0
  5  6  2  0  0  0  0
  5 15  1  0  0  0  0
  6  1  1  0  0  0  0
  6 16  1  0  0  0  0
  7  8  1  0  0  0  0
  7 13  1  0  0  0  0
  9  8  2  0  0  0  0
  9 17  1  0  0  0  0
 10 11  2  0  0  0  0
 10 12  2  0  0  0  0
M  END
>  <activity>
Active

$$$$
mutag_d173
 OpenBabel01191712022D

 28 29  0  0  0  0  0  0  0  0999 V2000
    2.5981    1.5000    0.0000 C   0  0  0  0  0  0  0  0  0  0  0  0
    2.5981    2.5000    0.0000 C   0  0  0  0  0  0  0  0  0  0  0  0
    3.4641    3.0000    0.0000 C   0  0  0  0  0  0  0  0  0  0  0  0
    4.3301    2.5000    0.0000 C   0  0  0  0  0  0  0  0  0  0  0  0
    4.3301    1.5000    0.0000 C   0  0  0  0  0  0  0  0  0  0  0  0
    3.4641    1.0000    0.0000 C   0  0  0  0  0  0  0  0  0  0  0  0
    1.7321    3.0000    0.0000 H   0  0  0  0  0  0  0  0  0  0  0  0
    3.4641    4.0000    0.0000 H   0  0  0  0  0  0  0  0  0  0  0  0
    3.4641   -0.0000    0.0000 H   0  0  0  0  0  0  0  0  0  0  0  0
    0.0000    0.0000    0.0000 C   0  0  0  0  0  0  0  0  0  0  0  0
    0.0000    1.0000    0.0000 C   0  0  0  0  0  0  0  0  0  0  0  0
    0.8660    1.5000    0.0000 C   0  0  0  0  0  0  0  0  0  0  0  0
    1.7321    1.0000    0.0000 C   0  0  0  0  0  0  0  0  0  0  0  0
    1.7321   -0.0000    0.0000 C   0  0  0  0  0  0  0  0  0  0  0  0
    0.8660   -0.5000    0.0000 C   0  0  0  0  0  0  0  0  0  0  0  0
   -0.8660    1.5000    0.0000 H   0  0  0  0  0  0  0  0  0  0  0  0
    0.8660    2.5000    0.0000 H   0  0  0  0  0  0  0  0  0  0  0  0
    2.5981   -0.5000    0.0000 H   0  0  0  0  0  0  0  0  0  0  0  0
    0.8660   -1.5000    0.0000 H   0  0  0  0  0  0  0  0  0  0  0  0
    5.1962    1.0000    0.0000 N   0  0  0  0  0  0  0  0  0  0  0  0
    5.1962    3.0000    0.0000 N   0  0  0  0  0  0  0  0  0  0  0  0
   -0.8660   -0.5000    0.0000 N   0  0  0  0  0  0  0  0  0  0  0  0
   -1.7321    0.0000    0.0000 O   0  0  0  0  0  0  0  0  0  0  0  0
   -0.8660   -1.5000    0.0000 O   0  0  0  0  0  0  0  0  0  0  0  0
    5.1962   -0.0000    0.0000 O   0  0  0  0  0  0  0  0  0  0  0  0
    6.0622    1.5000    0.0000 O   0  0  0  0  0  0  0  0  0  0  0  0
    6.0622    2.5000    0.0000 O   0  0  0  0  0  0  0  0  0  0  0  0
    5.1962    4.0000    0.0000 O   0  0  0  0  0  0  0  0  0  0  0  0
  1  2  2  0  0  0  0
  2  3  1  0  0  0  0
  2  7  1  0  0  0  0
  3  4  2  0  0  0  0
  3  8  1  0  0  0  0
  4  5  1  0  0  0  0
  4 21  1  0  0  0  0
  5  6  2  0  0  0  0
  5 20  1  0  0  0  0
  6  1  1  0  0  0  0
  6  9  1  0  0  0  0
 10 11  2  0  0  0  0
 10 22  1  0  0  0  0
 11 12  1  0  0  0  0
 11 16  1  0  0  0  0
 12 13  2  0  0  0  0
 12 17  1  0  0  0  0
 13 14  1  0  0  0  0
 13  1  1  0  0  0  0
 14 15  2  0  0  0  0
 14 18  1  0  0  0  0
 15 10  1  0  0  0  0
 15 19  1  0  0  0  0
 20 25  2  0  0  0  0
 20 26  2  0  0  0  0
 21 27  2  0  0  0  0
 21 28  2  0  0  0  0
 22 23  2  0  0  0  0
 22 24  2  0  0  0  0
M  END
>  <activity>
Active

$$$$
mutag_d174
 OpenBabel01191712022D

 30 33  0  0  0  0  0  0  0  0999 V2000
   -0.0006   -2.8425    0.0000 C   0  0  0  0  0  0  0  0  0  0  0  0
   -0.8213   -2.3687    0.0000 C   0  0  0  0  0  0  0  0  0  0  0  0
   -0.8211   -1.4214    0.0000 C   0  0  0  0  0  0  0  0  0  0  0  0
   -0.0002   -0.9478    0.0000 C   0  0  0  0  0  0  0  0  0  0  0  0
    0.8200   -1.4217    0.0000 C   0  0  0  0  0  0  0  0  0  0  0  0
    0.8198   -2.3690    0.0000 C   0  0  0  0  0  0  0  0  0  0  0  0
   -0.0008   -3.8266    0.0000 H   0  0  0  0  0  0  0  0  0  0  0  0
   -1.6735   -2.8606    0.0000 H   0  0  0  0  0  0  0  0  0  0  0  0
    1.6720   -2.8612    0.0000 H   0  0  0  0  0  0  0  0  0  0  0  0
   -1.6413   -0.9475    0.0000 C   0  0  0  0  0  0  0  0  0  0  0  0
   -1.6411    0.0003    0.0000 C   0  0  0  0  0  0  0  0  0  0  0  0
   -0.8207    0.4738    0.0000 C   0  0  0  0  0  0  0  0  0  0  0  0
    0.0000    0.0000    0.0000 C   0  0  0  0  0  0  0  0  0  0  0  0
   -2.4932    0.4925    0.0000 H   0  0  0  0  0  0  0  0  0  0  0  0
   -0.8206    1.4579    0.0000 H   0  0  0  0  0  0  0  0  0  0  0  0
    1.6409   -0.9482    0.0000 C   0  0  0  0  0  0  0  0  0  0  0  0
    1.6411   -0.0003    0.0000 C   0  0  0  0  0  0  0  0  0  0  0  0
    2.4620    0.4732    0.0000 C   0  0  0  0  0  0  0  0  0  0  0  0
    3.2822   -0.0007    0.0000 C   0  0  0  0  0  0  0  0  0  0  0  0
    3.2820   -0.9485    0.0000 C   0  0  0  0  0  0  0  0  0  0  0  0
    2.4616   -1.4220    0.0000 C   0  0  0  0  0  0  0  0  0  0  0  0
    2.4621    1.4572    0.0000 H   0  0  0  0  0  0  0  0  0  0  0  0
    4.1342   -1.4407    0.0000 H   0  0  0  0  0  0  0  0  0  0  0  0
    2.4616   -2.4060    0.0000 H   0  0  0  0  0  0  0  0  0  0  0  0
   -2.4618   -1.4209    0.0000 N   0  0  0  0  0  0  0  0  0  0  0  0
    4.1027    0.4728    0.0000 N   0  0  0  0  0  0  0  0  0  0  0  0
   -3.3962   -1.2656    0.0000 O   0  0  0  0  0  0  0  0  0  0  0  0
   -2.1291   -2.3079    0.0000 O   0  0  0  0  0  0  0  0  0  0  0  0
    5.0035    0.1799    0.0000 O   0  0  0  0  0  0  0  0  0  0  0  0
    3.9060    1.3994    0.0000 O   0  0  0  0  0  0  0  0  0  0  0  0
  1  2  2  0  0  0  0
  1  7  1  0  0  0  0
  2  3  1  0  0  0  0
  2  8  1  0  0  0  0
  3  4  2  0  0  0  0
  3 10  1  0  0  0  0
  4  5  1  0  0  0  0
  5  6  2  0  0  0  0
  6  1  1  0  0  0  0
  6  9  1  0  0  0  0
 10 11  2  0  0  0  0
 10 25  1  0  0  0  0
 11 12  1  0  0  0  0
 11 14  1  0  0  0  0
 12 13  2  0  0  0  0
 12 15  1  0  0  0  0
 13  4  1  0  0  0  0
 16 17  2  0  0  0  0
 16  5  1  0  0  0  0
 17 18  1  0  0  0  0
 17 13  1  0  0  0  0
 18 19  2  0  0  0  0
 18 22  1  0  0  0  0
 19 20  1  0  0  0  0
 19 26  1  0  0  0  0
 20 21  2  0  0  0  0
 20 23  1  0  0  0  0
 21 16  1  0  0  0  0
 21 24  1  0  0  0  0
 25 27  2  0  0  0  0
 25 28  2  0  0  0  0
 26 29  2  0  0  0  0
 26 30  2  0  0  0  0
M  END
>  <activity>
Active

$$$$
mutag_d175
 OpenBabel01191712022D

 24 26  0  0  0  0  0  0  0  0999 V2000
    3.4641   -1.0000    0.0000 C   0  0  0  0  0  0  0  0  0  0  0  0
    2.5981   -1.5000    0.0000 C   0  0  0  0  0  0  0  0  0  0  0  0
    1.7321   -1.0000    0.0000 C   0  0  0  0  0  0  0  0  0  0  0  0
    1.7321    0.0000    0.0000 C   0  0  0  0  0  0  0  0  0  0  0  0
    2.5981    0.5000    0.0000 C   0  0  0  0  0  0  0  0  0  0  0  0
    3.4641    0.0000    0.0000 C   0  0  0  0  0  0  0  0  0  0  0  0
    2.5981   -2.5000    0.0000 H   0  0  0  0  0  0  0  0  0  0  0  0
    2.5981    1.5000    0.0000 H   0  0  0  0  0  0  0  0  0  0  0  0
    0.8660   -1.5000    0.0000 O   0  0  0  0  0  0  0  0  0  0  0  0
    0.0000   -1.0000    0.0000 C   0  0  0  0  0  0  0  0  0  0  0  0
    0.0000   -0.0000    0.0000 C   0  0  0  0  0  0  0  0  0  0  0  0
    0.8660    0.5000    0.0000 O   0  0  0  0  0  0  0  0  0  0  0  0
   -0.8660   -1.5000    0.0000 C   0  0  0  0  0  0  0  0  0  0  0  0
   -1.7321   -1.0000    0.0000 C   0  0  0  0  0  0  0  0  0  0  0  0
   -1.7321    0.0000    0.0000 C   0  0  0  0  0  0  0  0  0  0  0  0
   -0.8660    0.5000    0.0000 C   0  0  0  0  0  0  0  0  0  0  0  0
   -2.5981   -1.5000    0.0000 N   0  0  0  0  0  0  0  0  0  0  0  0
   -3.4641   -1.0000    0.0000 O   0  0  0  0  0  0  0  0  0  0  0  0
   -2.5981   -2.5000    0.0000 O   0  0  0  0  0  0  0  0  0  0  0  0
   -0.8660    1.5000    0.0000 Cl  0  0  0  0  0  0  0  0  0  0  0  0
   -2.5981    0.5000    0.0000 Cl  0  0  0  0  0  0  0  0  0  0  0  0
   -0.8660   -2.5000    0.0000 Cl  0  0  0  0  0  0  0  0  0  0  0  0
    4.3301   -1.5000    0.0000 Cl  0  0  0  0  0  0  0  0  0  0  0  0
    4.3301    0.5000    0.0000 Cl  0  0  0  0  0  0  0  0  0  0  0  0
  1  2  2  0  0  0  0
  1 23  1  0  0  0  0
  2  3  1  0  0  0  0
  2  7  1  0  0  0  0
  3  4  2  0  0  0  0
  3  9  1  0  0  0  0
  4  5  1  0  0  0  0
  5  6  2  0  0  0  0
  5  8  1  0  0  0  0
  6  1  1  0  0  0  0
  6 24  1  0  0  0  0
  9 10  1  0  0  0  0
 10 11  2  0  0  0  0
 10 13  1  0  0  0  0
 11 12  1  0  0  0  0
 12  4  1  0  0  0  0
 13 14  2  0  0  0  0
 13 22  1  0  0  0  0
 14 15  1  0  0  0  0
 14 17  1  0  0  0  0
 15 16  2  0  0  0  0
 15 21  1  0  0  0  0
 16 11  1  0  0  0  0
 16 20  1  0  0  0  0
 17 18  2  0  0  0  0
 17 19  2  0  0  0  0
M  END
>  <activity>
Inactive

$$$$
mutag_d176
 OpenBabel01191712022D

 19 20  0  0  0  0  0  0  0  0999 V2000
    3.2709    0.5000    0.0000 C   0  0  0  0  0  0  0  0  0  0  0  0
    2.4049    1.0000    0.0000 C   0  0  0  0  0  0  0  0  0  0  0  0
    1.5388    0.5000    0.0000 C   0  0  0  0  0  0  0  0  0  0  0  0
    1.5388   -0.5000    0.0000 C   0  0  0  0  0  0  0  0  0  0  0  0
    2.4049   -1.0000    0.0000 C   0  0  0  0  0  0  0  0  0  0  0  0
    3.2709   -0.5000    0.0000 C   0  0  0  0  0  0  0  0  0  0  0  0
    2.4049    2.0000    0.0000 H   0  0  0  0  0  0  0  0  0  0  0  0
    2.4049   -2.0000    0.0000 H   0  0  0  0  0  0  0  0  0  0  0  0
    4.1369   -1.0000    0.0000 H   0  0  0  0  0  0  0  0  0  0  0  0
    0.5878    0.8090    0.0000 C   0  0  0  0  0  0  0  0  0  0  0  0
    0.0000   -0.0000    0.0000 C   0  0  0  0  0  0  0  0  0  0  0  0
    0.7957    1.7872    0.0000 H   0  0  0  0  0  0  0  0  0  0  0  0
   -0.1554    1.4781    0.0000 H   0  0  0  0  0  0  0  0  0  0  0  0
    0.5878   -0.8090    0.0000 C   0  0  0  0  0  0  0  0  0  0  0  0
    0.2788   -1.7601    0.0000 H   0  0  0  0  0  0  0  0  0  0  0  0
   -1.0000   -0.0000    0.0000 H   0  0  0  0  0  0  0  0  0  0  0  0
    4.1369    1.0000    0.0000 N   0  0  0  0  0  0  0  0  0  0  0  0
    5.0029    0.5000    0.0000 O   0  0  0  0  0  0  0  0  0  0  0  0
    4.1369    2.0000    0.0000 O   0  0  0  0  0  0  0  0  0  0  0  0
  1  2  2  0  0  0  0
  1 17  1  0  0  0  0
  2  3  1  0  0  0  0
  2  7  1  0  0  0  0
  3  4  2  0  0  0  0
  3 10  1  0  0  0  0
  4  5  1  0  0  0  0
  4 14  1  0  0  0  0
  5  6  2  0  0  0  0
  5  8  1  0  0  0  0
  6  1  1  0  0  0  0
  6  9  1  0  0  0  0
 10 11  1  0  0  0  0
 10 12  1  0  0  0  0
 10 13  1  0  0  0  0
 11 16  1  0  0  0  0
 14 11  2  0  0  0  0
 14 15  1  0  0  0  0
 17 18  2  0  0  0  0
 17 19  2  0  0  0  0
M  END
>  <activity>
Active

$$$$
mutag_d177
 OpenBabel01191712022D

 28 30  0  0  0  0  0  0  0  0999 V2000
    3.4641   -1.0000    0.0000 C   0  0  0  0  0  0  0  0  0  0  0  0
    2.5981   -1.5000    0.0000 C   0  0  0  0  0  0  0  0  0  0  0  0
    1.7321   -1.0000    0.0000 C   0  0  0  0  0  0  0  0  0  0  0  0
    1.7321   -0.0000    0.0000 C   0  0  0  0  0  0  0  0  0  0  0  0
    2.5981    0.5000    0.0000 C   0  0  0  0  0  0  0  0  0  0  0  0
    3.4641   -0.0000    0.0000 C   0  0  0  0  0  0  0  0  0  0  0  0
    4.3301   -1.5000    0.0000 H   0  0  0  0  0  0  0  0  0  0  0  0
    2.5981   -2.5000    0.0000 H   0  0  0  0  0  0  0  0  0  0  0  0
    4.3301    0.5000    0.0000 H   0  0  0  0  0  0  0  0  0  0  0  0
    0.8660   -1.5000    0.0000 N   0  0  0  0  0  0  0  0  0  0  0  0
   -0.0000   -1.0000    0.0000 C   0  0  0  0  0  0  0  0  0  0  0  0
    0.0000   -0.0000    0.0000 C   0  0  0  0  0  0  0  0  0  0  0  0
    0.8660    0.5000    0.0000 N   0  0  0  0  0  0  0  0  0  0  0  0
   -0.8660   -1.5000    0.0000 C   0  0  0  0  0  0  0  0  0  0  0  0
   -1.7321   -1.0000    0.0000 C   0  0  0  0  0  0  0  0  0  0  0  0
   -1.7321    0.0000    0.0000 C   0  0  0  0  0  0  0  0  0  0  0  0
   -0.8660    0.5000    0.0000 C   0  0  0  0  0  0  0  0  0  0  0  0
   -0.8660   -2.5000    0.0000 H   0  0  0  0  0  0  0  0  0  0  0  0
   -2.5981   -1.5000    0.0000 H   0  0  0  0  0  0  0  0  0  0  0  0
   -2.5981    0.5000    0.0000 H   0  0  0  0  0  0  0  0  0  0  0  0
    0.8660    1.5000    0.0000 H   0  0  0  0  0  0  0  0  0  0  0  0
    0.8660   -2.5000    0.0000 H   0  0  0  0  0  0  0  0  0  0  0  0
   -0.8660    1.5000    0.0000 N   0  0  0  0  0  0  0  0  0  0  0  0
    2.5981    1.5000    0.0000 N   0  0  0  0  0  0  0  0  0  0  0  0
    3.4641    2.0000    0.0000 O   0  0  0  0  0  0  0  0  0  0  0  0
    1.7321    2.0000    0.0000 O   0  0  0  0  0  0  0  0  0  0  0  0
    0.0000    2.0000    0.0000 O   0  0  0  0  0  0  0  0  0  0  0  0
   -1.7321    2.0000    0.0000 O   0  0  0  0  0  0  0  0  0  0  0  0
  1  2  2  0  0  0  0
  1  7  1  0  0  0  0
  2  3  1  0  0  0  0
  2  8  1  0  0  0  0
  3  4  2  0  0  0  0
  3 10  1  0  0  0  0
  4  5  1  0  0  0  0
  5  6  2  0  0  0  0
  5 24  1  0  0  0  0
  6  1  1  0  0  0  0
  6  9  1  0  0  0  0
 10 11  1  0  0  0  0
 10 22  1  0  0  0  0
 11 12  2  0  0  0  0
 11 14  1  0  0  0  0
 12 13  1  0  0  0  0
 13  4  1  0  0  0  0
 13 21  1  0  0  0  0
 14 15  2  0  0  0  0
 14 18  1  0  0  0  0
 15 16  1  0  0  0  0
 15 19  1  0  0  0  0
 16 17  2  0  0  0  0
 16 20  1  0  0  0  0
 17 12  1  0  0  0  0
 17 23  1  0  0  0  0
 23 27  2  0  0  0  0
 23 28  2  0  0  0  0
 24 25  2  0  0  0  0
 24 26  2  0  0  0  0
M  END
>  <activity>
Active


$$$$
mutag_d179
 OpenBabel01191712022D

 31 32  0  0  0  0  0  0  0  0999 V2000
   -3.4641   -0.0000    0.0000 C   0  0  0  0  0  0  0  0  0  0  0  0
   -4.3301    0.5000    0.0000 C   0  0  0  0  0  0  0  0  0  0  0  0
   -4.3301    1.5000    0.0000 C   0  0  0  0  0  0  0  0  0  0  0  0
   -3.4641    2.0000    0.0000 C   0  0  0  0  0  0  0  0  0  0  0  0
   -2.5981    1.5000    0.0000 C   0  0  0  0  0  0  0  0  0  0  0  0
   -2.5981    0.5000    0.0000 C   0  0  0  0  0  0  0  0  0  0  0  0
   -3.4641   -1.0000    0.0000 H   0  0  0  0  0  0  0  0  0  0  0  0
   -5.1962    2.0000    0.0000 H   0  0  0  0  0  0  0  0  0  0  0  0
   -3.4641    3.0000    0.0000 H   0  0  0  0  0  0  0  0  0  0  0  0
   -1.7321    0.0000    0.0000 H   0  0  0  0  0  0  0  0  0  0  0  0
   -1.7321    2.0000    0.0000 C   0  0  0  0  0  0  0  0  0  0  0  0
   -0.8660    1.5000    0.0000 C   0  0  0  0  0  0  0  0  0  0  0  0
   -1.7321    3.0000    0.0000 H   0  0  0  0  0  0  0  0  0  0  0  0
   -0.8660    0.5000    0.0000 O   0  0  0  0  0  0  0  0  0  0  0  0
    0.0000    2.0000    0.0000 H   0  0  0  0  0  0  0  0  0  0  0  0
   -0.0000   -0.0000    0.0000 C   0  0  0  0  0  0  0  0  0  0  0  0
    0.8660    0.5000    0.0000 C   0  0  0  0  0  0  0  0  0  0  0  0
    1.7321    0.0000    0.0000 C   0  0  0  0  0  0  0  0  0  0  0  0
    1.7321   -1.0000    0.0000 C   0  0  0  0  0  0  0  0  0  0  0  0
    0.8660   -1.5000    0.0000 C   0  0  0  0  0  0  0  0  0  0  0  0
    0.0000   -1.0000    0.0000 C   0  0  0  0  0  0  0  0  0  0  0  0
    0.8660    1.5000    0.0000 H   0  0  0  0  0  0  0  0  0  0  0  0
    2.5981    0.5000    0.0000 H   0  0  0  0  0  0  0  0  0  0  0  0
    0.8660   -2.5000    0.0000 H   0  0  0  0  0  0  0  0  0  0  0  0
   -0.8660   -1.5000    0.0000 H   0  0  0  0  0  0  0  0  0  0  0  0
   -5.1962   -0.0000    0.0000 N   0  0  0  0  0  0  0  0  0  0  0  0
   -6.0622    0.5000    0.0000 O   0  0  0  0  0  0  0  0  0  0  0  0
   -5.1962   -1.0000    0.0000 O   0  0  0  0  0  0  0  0  0  0  0  0
    2.5981   -1.5000    0.0000 N   0  0  0  0  0  0  0  0  0  0  0  0
    2.5981   -2.5000    0.0000 O   0  0  0  0  0  0  0  0  0  0  0  0
    3.4641   -1.0000    0.0000 O   0  0  0  0  0  0  0  0  0  0  0  0
  1  2  2  0  0  0  0
  1  7  1  0  0  0  0
  2  3  1  0  0  0  0
  2 26  1  0  0  0  0
  3  4  2  0  0  0  0
  3  8  1  0  0  0  0
  4  5  1  0  0  0  0
  4  9  1  0  0  0  0
  5  6  2  0  0  0  0
  5 11  1  0  0  0  0
  6  1  1  0  0  0  0
  6 10  1  0  0  0  0
 11 12  2  3  0  0  0
 11 13  1  0  0  0  0
 12 14  1  0  0  0  0
 12 15  1  0  0  0  0
 14 16  1  0  0  0  0
 16 17  2  0  0  0  0
 17 18  1  0  0  0  0
 17 22  1  0  0  0  0
 18 19  2  0  0  0  0
 18 23  1  0  0  0  0
 19 20  1  0  0  0  0
 19 29  1  0  0  0  0
 20 21  2  0  0  0  0
 20 24  1  0  0  0  0
 21 16  1  0  0  0  0
 21 25  1  0  0  0  0
 26 27  2  0  0  0  0
 26 28  2  0  0  0  0
 29 30  2  0  0  0  0
 29 31  2  0  0  0  0
M  END
>  <activity>
Inactive

$$$$
mutag_d18
 OpenBabel01191712022D

 24 26  0  0  0  0  0  0  0  0999 V2000
   -3.3273    0.0007    0.0000 C   0  0  0  0  0  0  0  0  0  0  0  0
   -2.4956    0.4807    0.0000 C   0  0  0  0  0  0  0  0  0  0  0  0
   -1.6637    0.0003    0.0000 C   0  0  0  0  0  0  0  0  0  0  0  0
   -1.6638   -0.9605    0.0000 C   0  0  0  0  0  0  0  0  0  0  0  0
   -2.4960   -1.4405    0.0000 C   0  0  0  0  0  0  0  0  0  0  0  0
   -3.3275   -0.9602    0.0000 C   0  0  0  0  0  0  0  0  0  0  0  0
    0.0000    0.0000    0.0000 C   0  0  0  0  0  0  0  0  0  0  0  0
    0.8322    0.4800    0.0000 C   0  0  0  0  0  0  0  0  0  0  0  0
    1.6637   -0.0003    0.0000 C   0  0  0  0  0  0  0  0  0  0  0  0
    1.6635   -0.9612    0.0000 C   0  0  0  0  0  0  0  0  0  0  0  0
    0.8318   -1.4412    0.0000 C   0  0  0  0  0  0  0  0  0  0  0  0
   -0.0002   -0.9609    0.0000 C   0  0  0  0  0  0  0  0  0  0  0  0
   -0.8320    0.4803    0.0000 C   0  0  0  0  0  0  0  0  0  0  0  0
   -0.8318    1.4878    0.0000 O   0  0  0  0  0  0  0  0  0  0  0  0
    2.4950   -1.4415    0.0000 N   0  0  0  0  0  0  0  0  0  0  0  0
    2.1981   -2.3547    0.0000 O   0  0  0  0  0  0  0  0  0  0  0  0
    3.4343   -1.2420    0.0000 O   0  0  0  0  0  0  0  0  0  0  0  0
   -4.1932    0.5008    0.0000 H   0  0  0  0  0  0  0  0  0  0  0  0
   -2.4956    1.4807    0.0000 H   0  0  0  0  0  0  0  0  0  0  0  0
   -2.4961   -2.4405    0.0000 H   0  0  0  0  0  0  0  0  0  0  0  0
   -4.1936   -1.4600    0.0000 H   0  0  0  0  0  0  0  0  0  0  0  0
    0.8325    1.4800    0.0000 H   0  0  0  0  0  0  0  0  0  0  0  0
    2.5298    0.4995    0.0000 H   0  0  0  0  0  0  0  0  0  0  0  0
    0.8317   -2.4412    0.0000 H   0  0  0  0  0  0  0  0  0  0  0  0
  1  2  2  0  0  0  0
  1 18  1  0  0  0  0
  2  3  1  0  0  0  0
  2 19  1  0  0  0  0
  3  4  2  0  0  0  0
  3 13  1  0  0  0  0
  4  5  1  0  0  0  0
  4 12  1  0  0  0  0
  5  6  2  0  0  0  0
  5 20  1  0  0  0  0
  6  1  1  0  0  0  0
  6 21  1  0  0  0  0
  7  8  2  0  0  0  0
  8  9  1  0  0  0  0
  8 22  1  0  0  0  0
  9 10  2  0  0  0  0
  9 23  1  0  0  0  0
 10 11  1  0  0  0  0
 10 15  1  0  0  0  0
 11 12  2  0  0  0  0
 11 24  1  0  0  0  0
 12  7  1  0  0  0  0
 13  7  1  0  0  0  0
 13 14  2  0  0  0  0
 15 17  2  0  0  0  0
 16 15  2  0  0  0  0
M  END
>  <activity>
Active

$$$$
mutag_d180
 OpenBabel01191712022D

 38 43  0  0  0  0  0  0  0  0999 V2000
    2.3463    1.3560    0.0000 C   0  0  0  0  0  0  0  0  0  0  0  0
    2.3467    0.4527    0.0000 C   0  0  0  0  0  0  0  0  0  0  0  0
    1.5646    0.0007    0.0000 C   0  0  0  0  0  0  0  0  0  0  0  0
    0.7821    0.4520    0.0000 C   0  0  0  0  0  0  0  0  0  0  0  0
    0.7817    1.3553    0.0000 C   0  0  0  0  0  0  0  0  0  0  0  0
    1.5638    1.8073    0.0000 C   0  0  0  0  0  0  0  0  0  0  0  0
   -0.0007    1.8066    0.0000 C   0  0  0  0  0  0  0  0  0  0  0  0
   -0.0011    2.7099    0.0000 C   0  0  0  0  0  0  0  0  0  0  0  0
    0.7810    3.1619    0.0000 C   0  0  0  0  0  0  0  0  0  0  0  0
    1.5635    2.7106    0.0000 C   0  0  0  0  0  0  0  0  0  0  0  0
   -0.7828    1.3546    0.0000 C   0  0  0  0  0  0  0  0  0  0  0  0
   -1.5649    1.8061    0.0000 C   0  0  0  0  0  0  0  0  0  0  0  0
   -1.5657    2.7092    0.0000 C   0  0  0  0  0  0  0  0  0  0  0  0
   -0.7836    3.1612    0.0000 C   0  0  0  0  0  0  0  0  0  0  0  0
   -0.7821    0.4515    0.0000 C   0  0  0  0  0  0  0  0  0  0  0  0
   -1.5642   -0.0005    0.0000 C   0  0  0  0  0  0  0  0  0  0  0  0
   -2.3467    0.4509    0.0000 C   0  0  0  0  0  0  0  0  0  0  0  0
   -2.3470    1.3542    0.0000 C   0  0  0  0  0  0  0  0  0  0  0  0
   -0.0000   -0.0000    0.0000 C   0  0  0  0  0  0  0  0  0  0  0  0
    0.0008   -0.9031    0.0000 C   0  0  0  0  0  0  0  0  0  0  0  0
   -0.7813   -1.3551    0.0000 C   0  0  0  0  0  0  0  0  0  0  0  0
   -1.5638   -0.9037    0.0000 C   0  0  0  0  0  0  0  0  0  0  0  0
   -2.3459   -1.3557    0.0000 N   0  0  0  0  0  0  0  0  0  0  0  0
    1.5650   -0.9026    0.0000 N   0  0  0  0  0  0  0  0  0  0  0  0
   -3.2411   -1.2351    0.0000 O   0  0  0  0  0  0  0  0  0  0  0  0
   -2.0028   -2.1913    0.0000 O   0  0  0  0  0  0  0  0  0  0  0  0
    0.6617   -0.9030    0.0000 O   0  0  0  0  0  0  0  0  0  0  0  0
    2.0169   -1.6847    0.0000 O   0  0  0  0  0  0  0  0  0  0  0  0
    3.1284    1.8079    0.0000 H   0  0  0  0  0  0  0  0  0  0  0  0
    3.1291    0.0014    0.0000 H   0  0  0  0  0  0  0  0  0  0  0  0
    0.7806    4.0651    0.0000 H   0  0  0  0  0  0  0  0  0  0  0  0
    2.3455    3.1625    0.0000 H   0  0  0  0  0  0  0  0  0  0  0  0
   -2.3482    3.1603    0.0000 H   0  0  0  0  0  0  0  0  0  0  0  0
   -0.7840    4.0645    0.0000 H   0  0  0  0  0  0  0  0  0  0  0  0
   -3.1287   -0.0011    0.0000 H   0  0  0  0  0  0  0  0  0  0  0  0
   -3.1295    1.8055    0.0000 H   0  0  0  0  0  0  0  0  0  0  0  0
    0.7832   -1.3544    0.0000 H   0  0  0  0  0  0  0  0  0  0  0  0
   -0.7810   -2.2583    0.0000 H   0  0  0  0  0  0  0  0  0  0  0  0
  1  2  2  0  0  0  0
  1 29  1  0  0  0  0
  2  3  1  0  0  0  0
  2 30  1  0  0  0  0
  3  4  2  0  0  0  0
  3 24  1  0  0  0  0
  4  5  1  0  0  0  0
  4 19  1  0  0  0  0
  5  6  2  0  0  0  0
  5  7  1  0  0  0  0
  6  1  1  0  0  0  0
  7  8  2  0  0  0  0
  7 11  1  0  0  0  0
  8  9  1  0  0  0  0
  9 10  2  0  0  0  0
  9 31  1  0  0  0  0
 10  6  1  0  0  0  0
 10 32  1  0  0  0  0
 11 12  2  0  0  0  0
 11 15  1  0  0  0  0
 12 13  1  0  0  0  0
 13 14  2  0  0  0  0
 13 33  1  0  0  0  0
 14  8  1  0  0  0  0
 14 34  1  0  0  0  0
 15 16  2  0  0  0  0
 15 19  1  0  0  0  0
 16 17  1  0  0  0  0
 17 18  2  0  0  0  0
 17 35  1  0  0  0  0
 18 12  1  0  0  0  0
 18 36  1  0  0  0  0
 19 20  2  0  0  0  0
 20 21  1  0  0  0  0
 20 37  1  0  0  0  0
 21 22  2  0  0  0  0
 21 38  1  0  0  0  0
 22 16  1  0  0  0  0
 22 23  1  0  0  0  0
 23 25  2  0  0  0  0
 23 26  2  0  0  0  0
 24 27  2  0  0  0  0
 24 28  2  0  0  0  0
M  END
>  <activity>
Active

$$$$
mutag_d181
 OpenBabel01191712022D

 18 18  0  0  0  0  0  0  0  0999 V2000
   -0.0000   -0.0000    0.0000 C   0  0  0  0  0  0  0  0  0  0  0  0
   -0.8660    0.5000    0.0000 C   0  0  0  0  0  0  0  0  0  0  0  0
   -0.8660    1.5000    0.0000 C   0  0  0  0  0  0  0  0  0  0  0  0
   -0.0000    2.0000    0.0000 C   0  0  0  0  0  0  0  0  0  0  0  0
    0.8660    1.5000    0.0000 C   0  0  0  0  0  0  0  0  0  0  0  0
    0.8660    0.5000    0.0000 C   0  0  0  0  0  0  0  0  0  0  0  0
   -0.0000   -1.0000    0.0000 H   0  0  0  0  0  0  0  0  0  0  0  0
   -1.7321    2.0000    0.0000 H   0  0  0  0  0  0  0  0  0  0  0  0
    1.7321    0.0000    0.0000 H   0  0  0  0  0  0  0  0  0  0  0  0
    1.7321    2.0000    0.0000 N   0  0  0  0  0  0  0  0  0  0  0  0
   -1.7321   -0.0000    0.0000 N   0  0  0  0  0  0  0  0  0  0  0  0
    0.0000    3.0000    0.0000 N   0  0  0  0  0  0  0  0  0  0  0  0
    0.8660    3.5000    0.0000 O   0  0  0  0  0  0  0  0  0  0  0  0
   -0.8660    3.5000    0.0000 O   0  0  0  0  0  0  0  0  0  0  0  0
    2.5981    1.5000    0.0000 H   0  0  0  0  0  0  0  0  0  0  0  0
    1.7321    3.0000    0.0000 H   0  0  0  0  0  0  0  0  0  0  0  0
   -2.5981    0.5000    0.0000 H   0  0  0  0  0  0  0  0  0  0  0  0
   -1.7321   -1.0000    0.0000 H   0  0  0  0  0  0  0  0  0  0  0  0
  1  2  2  0  0  0  0
  1  7  1  0  0  0  0
  2  3  1  0  0  0  0
  2 11  1  0  0  0  0
  3  4  2  0  0  0  0
  3  8  1  0  0  0  0
  4  5  1  0  0  0  0
  4 12  1  0  0  0  0
  5  6  2  0  0  0  0
  5 10  1  0  0  0  0
  6  1  1  0  0  0  0
  6  9  1  0  0  0  0
 10 15  1  0  0  0  0
 10 16  1  0  0  0  0
 11 17  1  0  0  0  0
 11 18  1  0  0  0  0
 12 13  2  0  0  0  0
 12 14  2  0  0  0  0
M  END
>  <activity>
Inactive

$$$$
mutag_d182
 OpenBabel01191712022D

 22 23  0  0  0  0  0  0  0  0999 V2000
   -1.7321    1.0000    0.0000 C   0  0  0  0  0  0  0  0  0  0  0  0
   -0.8660    1.5000    0.0000 C   0  0  0  0  0  0  0  0  0  0  0  0
    0.0000    1.0000    0.0000 C   0  0  0  0  0  0  0  0  0  0  0  0
    0.0000    0.0000    0.0000 C   0  0  0  0  0  0  0  0  0  0  0  0
   -0.8660   -0.5000    0.0000 C   0  0  0  0  0  0  0  0  0  0  0  0
   -1.7321    0.0000    0.0000 C   0  0  0  0  0  0  0  0  0  0  0  0
   -2.5981    1.5000    0.0000 H   0  0  0  0  0  0  0  0  0  0  0  0
   -0.8660   -1.5000    0.0000 H   0  0  0  0  0  0  0  0  0  0  0  0
   -2.5981   -0.5000    0.0000 H   0  0  0  0  0  0  0  0  0  0  0  0
    0.8660    1.5000    0.0000 N   0  0  0  0  0  0  0  0  0  0  0  0
    1.7321    1.0000    0.0000 C   0  0  0  0  0  0  0  0  0  0  0  0
    1.7321   -0.0000    0.0000 C   0  0  0  0  0  0  0  0  0  0  0  0
    0.8660   -0.5000    0.0000 C   0  0  0  0  0  0  0  0  0  0  0  0
    2.5981   -0.5000    0.0000 H   0  0  0  0  0  0  0  0  0  0  0  0
    0.8660   -1.5000    0.0000 H   0  0  0  0  0  0  0  0  0  0  0  0
    2.5981    1.5000    0.0000 C   0  0  0  0  0  0  0  0  0  0  0  0
    3.0981    2.3660    0.0000 H   0  0  0  0  0  0  0  0  0  0  0  0
    2.0981    2.3660    0.0000 H   0  0  0  0  0  0  0  0  0  0  0  0
    3.4641    1.0000    0.0000 H   0  0  0  0  0  0  0  0  0  0  0  0
   -0.8660    2.5000    0.0000 N   0  0  0  0  0  0  0  0  0  0  0  0
    0.0000    3.0000    0.0000 O   0  0  0  0  0  0  0  0  0  0  0  0
   -1.7321    3.0000    0.0000 O   0  0  0  0  0  0  0  0  0  0  0  0
  1  2  2  0  0  0  0
  1  7  1  0  0  0  0
  2  3  1  0  0  0  0
  2 20  1  0  0  0  0
  3  4  2  0  0  0  0
  3 10  1  0  0  0  0
  4  5  1  0  0  0  0
  5  6  2  0  0  0  0
  5  8  1  0  0  0  0
  6  1  1  0  0  0  0
  6  9  1  0  0  0  0
 10 11  2  0  0  0  0
 11 12  1  0  0  0  0
 11 16  1  0  0  0  0
 12 13  2  0  0  0  0
 12 14  1  0  0  0  0
 13  4  1  0  0  0  0
 13 15  1  0  0  0  0
 16 17  1  0  0  0  0
 16 18  1  0  0  0  0
 16 19  1  0  0  0  0
 20 21  2  0  0  0  0
 20 22  2  0  0  0  0
M  END
>  <activity>
Inactive

$$$$
mutag_d183
 OpenBabel01191712022D

 30 33  0  0  0  0  0  0  0  0999 V2000
    3.2631    0.9165    0.0000 C   0  0  0  0  0  0  0  0  0  0  0  0
    3.2562   -0.0287    0.0000 C   0  0  0  0  0  0  0  0  0  0  0  0
    2.4392   -0.4922    0.0000 C   0  0  0  0  0  0  0  0  0  0  0  0
    1.6291   -0.0105    0.0000 C   0  0  0  0  0  0  0  0  0  0  0  0
    1.6339    0.9270    0.0000 C   0  0  0  0  0  0  0  0  0  0  0  0
    2.4509    1.3906    0.0000 C   0  0  0  0  0  0  0  0  0  0  0  0
    4.0794    1.3797    0.0000 H   0  0  0  0  0  0  0  0  0  0  0  0
    4.0655   -0.5040    0.0000 H   0  0  0  0  0  0  0  0  0  0  0  0
    2.4316   -1.4249    0.0000 C   0  0  0  0  0  0  0  0  0  0  0  0
    1.6191   -1.8859    0.0000 C   0  0  0  0  0  0  0  0  0  0  0  0
    0.8053   -1.4193    0.0000 C   0  0  0  0  0  0  0  0  0  0  0  0
    0.8167   -0.4715    0.0000 C   0  0  0  0  0  0  0  0  0  0  0  0
    3.2409   -1.9002    0.0000 H   0  0  0  0  0  0  0  0  0  0  0  0
    1.6170   -2.8245    0.0000 H   0  0  0  0  0  0  0  0  0  0  0  0
    0.0000   -0.0000    0.0000 C   0  0  0  0  0  0  0  0  0  0  0  0
    0.0170    0.9380    0.0000 C   0  0  0  0  0  0  0  0  0  0  0  0
    0.8294    1.3990    0.0000 C   0  0  0  0  0  0  0  0  0  0  0  0
   -0.7898    1.4176    0.0000 H   0  0  0  0  0  0  0  0  0  0  0  0
    0.8362    2.3375    0.0000 H   0  0  0  0  0  0  0  0  0  0  0  0
   -0.0117   -1.8828    0.0000 C   0  0  0  0  0  0  0  0  0  0  0  0
   -0.8117   -1.4083    0.0000 C   0  0  0  0  0  0  0  0  0  0  0  0
   -0.8170   -0.4635    0.0000 C   0  0  0  0  0  0  0  0  0  0  0  0
   -0.0185   -2.8214    0.0000 H   0  0  0  0  0  0  0  0  0  0  0  0
   -1.6260   -1.8751    0.0000 H   0  0  0  0  0  0  0  0  0  0  0  0
   -1.6300    0.0069    0.0000 N   0  0  0  0  0  0  0  0  0  0  0  0
    2.4567    2.3299    0.0000 N   0  0  0  0  0  0  0  0  0  0  0  0
    3.2730    2.7945    0.0000 O   0  0  0  0  0  0  0  0  0  0  0  0
    1.6461    2.8045    0.0000 O   0  0  0  0  0  0  0  0  0  0  0  0
   -2.0833    0.8296    0.0000 O   0  0  0  0  0  0  0  0  0  0  0  0
   -2.1158   -0.7970    0.0000 O   0  0  0  0  0  0  0  0  0  0  0  0
  1  2  2  0  0  0  0
  1  7  1  0  0  0  0
  2  3  1  0  0  0  0
  2  8  1  0  0  0  0
  3  4  2  0  0  0  0
  3  9  1  0  0  0  0
  4  5  1  0  0  0  0
  5  6  2  0  0  0  0
  6  1  1  0  0  0  0
  6 26  1  0  0  0  0
  9 10  2  0  0  0  0
  9 13  1  0  0  0  0
 10 11  1  0  0  0  0
 10 14  1  0  0  0  0
 11 12  2  0  0  0  0
 11 20  1  0  0  0  0
 12  4  1  0  0  0  0
 12 15  1  0  0  0  0
 15 16  1  0  0  0  0
 16 17  2  0  0  0  0
 16 18  1  0  0  0  0
 17  5  1  0  0  0  0
 17 19  1  0  0  0  0
 20 21  2  0  0  0  0
 20 23  1  0  0  0  0
 21 22  1  0  0  0  0
 21 24  1  0  0  0  0
 22 15  2  0  0  0  0
 22 25  1  0  0  0  0
 25 29  2  0  0  0  0
 25 30  2  0  0  0  0
 26 27  2  0  0  0  0
 26 28  2  0  0  0  0
M  END
>  <activity>
Active

$$$$
mutag_d184
 OpenBabel01191712022D

 30 33  0  0  0  0  0  0  0  0999 V2000
   -0.0005   -2.7584    0.0000 C   0  0  0  0  0  0  0  0  0  0  0  0
   -0.7970   -2.2986    0.0000 C   0  0  0  0  0  0  0  0  0  0  0  0
   -0.7968   -1.3793    0.0000 C   0  0  0  0  0  0  0  0  0  0  0  0
   -0.0002   -0.9198    0.0000 C   0  0  0  0  0  0  0  0  0  0  0  0
    0.7958   -1.3796    0.0000 C   0  0  0  0  0  0  0  0  0  0  0  0
    0.7956   -2.2989    0.0000 C   0  0  0  0  0  0  0  0  0  0  0  0
   -0.0007   -3.7133    0.0000 H   0  0  0  0  0  0  0  0  0  0  0  0
   -1.6240   -2.7759    0.0000 H   0  0  0  0  0  0  0  0  0  0  0  0
    2.4493   -3.2541    0.0000 H   0  0  0  0  0  0  0  0  0  0  0  0
   -1.5927   -0.9195    0.0000 C   0  0  0  0  0  0  0  0  0  0  0  0
   -1.5925    0.0003    0.0000 C   0  0  0  0  0  0  0  0  0  0  0  0
   -0.7964    0.4598    0.0000 C   0  0  0  0  0  0  0  0  0  0  0  0
   -0.0000   -0.0000    0.0000 C   0  0  0  0  0  0  0  0  0  0  0  0
   -2.4194    0.4779    0.0000 H   0  0  0  0  0  0  0  0  0  0  0  0
   -0.7963    1.4147    0.0000 H   0  0  0  0  0  0  0  0  0  0  0  0
    1.5923   -0.9201    0.0000 C   0  0  0  0  0  0  0  0  0  0  0  0
    1.5925   -0.0003    0.0000 C   0  0  0  0  0  0  0  0  0  0  0  0
    2.3891    0.4592    0.0000 C   0  0  0  0  0  0  0  0  0  0  0  0
    3.1851   -0.0006    0.0000 C   0  0  0  0  0  0  0  0  0  0  0  0
    3.1849   -0.9204    0.0000 C   0  0  0  0  0  0  0  0  0  0  0  0
    2.3888   -1.3799    0.0000 C   0  0  0  0  0  0  0  0  0  0  0  0
    2.3892    1.4141    0.0000 H   0  0  0  0  0  0  0  0  0  0  0  0
    4.0121    0.4766    0.0000 H   0  0  0  0  0  0  0  0  0  0  0  0
    4.0118   -1.3980    0.0000 H   0  0  0  0  0  0  0  0  0  0  0  0
   -2.3889   -1.3789    0.0000 N   0  0  0  0  0  0  0  0  0  0  0  0
    2.3887   -2.2991    0.0000 N   0  0  0  0  0  0  0  0  0  0  0  0
    1.4896   -2.4902    0.0000 O   0  0  0  0  0  0  0  0  0  0  0  0
    3.0037   -2.9823    0.0000 O   0  0  0  0  0  0  0  0  0  0  0  0
   -3.2956   -1.2281    0.0000 O   0  0  0  0  0  0  0  0  0  0  0  0
   -2.0661   -2.2395    0.0000 O   0  0  0  0  0  0  0  0  0  0  0  0
  1  2  2  0  0  0  0
  1  7  1  0  0  0  0
  2  3  1  0  0  0  0
  2  8  1  0  0  0  0
  3  4  2  0  0  0  0
  3 10  1  0  0  0  0
  4  5  1  0  0  0  0
  5  6  2  0  0  0  0
  6  1  1  0  0  0  0
  6  9  1  0  0  0  0
 10 11  2  0  0  0  0
 10 25  1  0  0  0  0
 11 12  1  0  0  0  0
 11 14  1  0  0  0  0
 12 13  2  0  0  0  0
 12 15  1  0  0  0  0
 13  4  1  0  0  0  0
 16 17  2  0  0  0  0
 16  5  1  0  0  0  0
 17 18  1  0  0  0  0
 17 13  1  0  0  0  0
 18 19  2  0  0  0  0
 18 22  1  0  0  0  0
 19 20  1  0  0  0  0
 19 23  1  0  0  0  0
 20 21  2  0  0  0  0
 20 24  1  0  0  0  0
 21 16  1  0  0  0  0
 21 26  1  0  0  0  0
 25 29  2  0  0  0  0
 25 30  2  0  0  0  0
 26 27  2  0  0  0  0
 26 28  2  0  0  0  0
M  END
>  <activity>
Active

$$$$
mutag_d185
 OpenBabel01191712022D

 16 16  0  0  0  0  0  0  0  0999 V2000
   -0.0000   -0.0000    0.0000 C   0  0  0  0  0  0  0  0  0  0  0  0
   -0.8660    0.5000    0.0000 C   0  0  0  0  0  0  0  0  0  0  0  0
   -0.8660    1.5000    0.0000 C   0  0  0  0  0  0  0  0  0  0  0  0
   -0.0000    2.0000    0.0000 C   0  0  0  0  0  0  0  0  0  0  0  0
    0.8660    1.5000    0.0000 C   0  0  0  0  0  0  0  0  0  0  0  0
    0.8660    0.5000    0.0000 C   0  0  0  0  0  0  0  0  0  0  0  0
   -0.0000   -1.0000    0.0000 H   0  0  0  0  0  0  0  0  0  0  0  0
   -0.0000    3.0000    0.0000 H   0  0  0  0  0  0  0  0  0  0  0  0
    1.7321    0.0000    0.0000 H   0  0  0  0  0  0  0  0  0  0  0  0
    1.7321    2.0000    0.0000 F   0  0  0  0  0  0  0  0  0  0  0  0
   -1.7321    2.0000    0.0000 N   0  0  0  0  0  0  0  0  0  0  0  0
   -1.7321   -0.0000    0.0000 N   0  0  0  0  0  0  0  0  0  0  0  0
   -2.5981    0.5000    0.0000 O   0  0  0  0  0  0  0  0  0  0  0  0
   -1.7321   -1.0000    0.0000 O   0  0  0  0  0  0  0  0  0  0  0  0
   -1.7321    3.0000    0.0000 O   0  0  0  0  0  0  0  0  0  0  0  0
   -2.5981    1.5000    0.0000 O   0  0  0  0  0  0  0  0  0  0  0  0
  1  2  2  0  0  0  0
  1  7  1  0  0  0  0
  2  3  1  0  0  0  0
  2 12  1  0  0  0  0
  3  4  2  0  0  0  0
  3 11  1  0  0  0  0
  4  5  1  0  0  0  0
  4  8  1  0  0  0  0
  5  6  2  0  0  0  0
  5 10  1  0  0  0  0
  6  1  1  0  0  0  0
  6  9  1  0  0  0  0
 11 15  2  0  0  0  0
 11 16  2  0  0  0  0
 12 13  2  0  0  0  0
 12 14  2  0  0  0  0
M  END
>  <activity>
Inactive

$$$$
mutag_d186
 OpenBabel01191712022D

 20 21  0  0  0  0  0  0  0  0999 V2000
    3.2709    0.5000    0.0000 C   0  0  0  0  0  0  0  0  0  0  0  0
    2.4049    1.0000    0.0000 C   0  0  0  0  0  0  0  0  0  0  0  0
    1.5388    0.5000    0.0000 C   0  0  0  0  0  0  0  0  0  0  0  0
    1.5388   -0.5000    0.0000 C   0  0  0  0  0  0  0  0  0  0  0  0
    2.4049   -1.0000    0.0000 C   0  0  0  0  0  0  0  0  0  0  0  0
    3.2709   -0.5000    0.0000 C   0  0  0  0  0  0  0  0  0  0  0  0
    4.1369    1.0000    0.0000 H   0  0  0  0  0  0  0  0  0  0  0  0
    2.4049    2.0000    0.0000 H   0  0  0  0  0  0  0  0  0  0  0  0
    2.4049   -2.0000    0.0000 H   0  0  0  0  0  0  0  0  0  0  0  0
    0.5878    0.8090    0.0000 N   0  0  0  0  0  0  0  0  0  0  0  0
    0.0000   -0.0000    0.0000 C   0  0  0  0  0  0  0  0  0  0  0  0
    0.5878   -0.8090    0.0000 C   0  0  0  0  0  0  0  0  0  0  0  0
   -0.1554   -1.4781    0.0000 H   0  0  0  0  0  0  0  0  0  0  0  0
    0.7957   -1.7872    0.0000 H   0  0  0  0  0  0  0  0  0  0  0  0
   -0.8660    0.5000    0.0000 H   0  0  0  0  0  0  0  0  0  0  0  0
   -0.8660   -0.5000    0.0000 H   0  0  0  0  0  0  0  0  0  0  0  0
    0.2788    1.7601    0.0000 H   0  0  0  0  0  0  0  0  0  0  0  0
    4.1369   -1.0000    0.0000 N   0  0  0  0  0  0  0  0  0  0  0  0
    4.1369   -2.0000    0.0000 O   0  0  0  0  0  0  0  0  0  0  0  0
    5.0029   -0.5000    0.0000 O   0  0  0  0  0  0  0  0  0  0  0  0
  1  2  2  0  0  0  0
  1  7  1  0  0  0  0
  2  3  1  0  0  0  0
  2  8  1  0  0  0  0
  3  4  2  0  0  0  0
  3 10  1  0  0  0  0
  4  5  1  0  0  0  0
  4 12  1  0  0  0  0
  5  6  2  0  0  0  0
  5  9  1  0  0  0  0
  6  1  1  0  0  0  0
  6 18  1  0  0  0  0
 10 11  1  0  0  0  0
 10 17  1  0  0  0  0
 11 15  1  0  0  0  0
 11 16  1  0  0  0  0
 12 11  1  0  0  0  0
 12 13  1  0  0  0  0
 12 14  1  0  0  0  0
 18 19  2  0  0  0  0
 18 20  2  0  0  0  0
M  END
>  <activity>
Inactive

$$$$
mutag_d187
 OpenBabel01191712022D

 32 35  0  0  0  0  0  0  0  0999 V2000
    0.0000    0.0000    0.0000 C   0  0  0  0  0  0  0  0  0  0  0  0
    0.0000    1.0000    0.0000 C   0  0  0  0  0  0  0  0  0  0  0  0
    0.8660    1.5000    0.0000 C   0  0  0  0  0  0  0  0  0  0  0  0
    1.7321    1.0000    0.0000 C   0  0  0  0  0  0  0  0  0  0  0  0
    1.7321   -0.0000    0.0000 C   0  0  0  0  0  0  0  0  0  0  0  0
    0.8660   -0.5000    0.0000 C   0  0  0  0  0  0  0  0  0  0  0  0
    2.5981    1.5000    0.0000 C   0  0  0  0  0  0  0  0  0  0  0  0
    3.4641    1.0000    0.0000 C   0  0  0  0  0  0  0  0  0  0  0  0
    3.4641   -0.0000    0.0000 C   0  0  0  0  0  0  0  0  0  0  0  0
    2.5981   -0.5000    0.0000 C   0  0  0  0  0  0  0  0  0  0  0  0
    2.5981    2.5000    0.0000 H   0  0  0  0  0  0  0  0  0  0  0  0
    4.3301    1.5000    0.0000 H   0  0  0  0  0  0  0  0  0  0  0  0
    2.5981   -1.5000    0.0000 H   0  0  0  0  0  0  0  0  0  0  0  0
   -0.8660    1.5000    0.0000 C   0  0  0  0  0  0  0  0  0  0  0  0
   -0.8660    2.5000    0.0000 C   0  0  0  0  0  0  0  0  0  0  0  0
    0.0000    3.0000    0.0000 C   0  0  0  0  0  0  0  0  0  0  0  0
    0.8660    2.5000    0.0000 C   0  0  0  0  0  0  0  0  0  0  0  0
   -1.7321    1.0000    0.0000 H   0  0  0  0  0  0  0  0  0  0  0  0
   -1.7321    3.0000    0.0000 H   0  0  0  0  0  0  0  0  0  0  0  0
    0.0000    4.0000    0.0000 H   0  0  0  0  0  0  0  0  0  0  0  0
    1.7321    3.0000    0.0000 H   0  0  0  0  0  0  0  0  0  0  0  0
    0.8660   -1.5000    0.0000 C   0  0  0  0  0  0  0  0  0  0  0  0
   -0.0000   -2.0000    0.0000 C   0  0  0  0  0  0  0  0  0  0  0  0
   -0.8660   -1.5000    0.0000 C   0  0  0  0  0  0  0  0  0  0  0  0
   -0.8660   -0.5000    0.0000 C   0  0  0  0  0  0  0  0  0  0  0  0
    1.7321   -2.0000    0.0000 H   0  0  0  0  0  0  0  0  0  0  0  0
   -0.0000   -3.0000    0.0000 H   0  0  0  0  0  0  0  0  0  0  0  0
   -1.7321   -2.0000    0.0000 H   0  0  0  0  0  0  0  0  0  0  0  0
   -1.7321   -0.0000    0.0000 H   0  0  0  0  0  0  0  0  0  0  0  0
    4.3301   -0.5000    0.0000 N   0  0  0  0  0  0  0  0  0  0  0  0
    4.3301   -1.5000    0.0000 O   0  0  0  0  0  0  0  0  0  0  0  0
    5.1962   -0.0000    0.0000 O   0  0  0  0  0  0  0  0  0  0  0  0
  1  2  1  0  0  0  0
  2  3  2  0  0  0  0
  2 14  1  0  0  0  0
  3  4  1  0  0  0  0
  4  5  2  0  0  0  0
  4  7  1  0  0  0  0
  5  6  1  0  0  0  0
  6  1  2  0  0  0  0
  6 22  1  0  0  0  0
  7  8  2  0  0  0  0
  7 11  1  0  0  0  0
  8  9  1  0  0  0  0
  8 12  1  0  0  0  0
  9 10  2  0  0  0  0
  9 30  1  0  0  0  0
 10  5  1  0  0  0  0
 10 13  1  0  0  0  0
 14 15  2  0  0  0  0
 14 18  1  0  0  0  0
 15 16  1  0  0  0  0
 15 19  1  0  0  0  0
 16 17  2  0  0  0  0
 16 20  1  0  0  0  0
 17  3  1  0  0  0  0
 17 21  1  0  0  0  0
 22 23  2  0  0  0  0
 22 26  1  0  0  0  0
 23 24  1  0  0  0  0
 23 27  1  0  0  0  0
 24 25  2  0  0  0  0
 24 28  1  0  0  0  0
 25  1  1  0  0  0  0
 25 29  1  0  0  0  0
 30 31  2  0  0  0  0
 30 32  2  0  0  0  0
M  END
>  <activity>
Active

$$$$
mutag_d188
 OpenBabel01191712022D

 24 26  0  0  0  0  0  0  0  0999 V2000
    3.3206   -0.0007    0.0000 C   0  0  0  0  0  0  0  0  0  0  0  0
    2.4906   -0.4797    0.0000 C   0  0  0  0  0  0  0  0  0  0  0  0
    1.6603   -0.0003    0.0000 C   0  0  0  0  0  0  0  0  0  0  0  0
    1.6605    0.9586    0.0000 C   0  0  0  0  0  0  0  0  0  0  0  0
    2.4910    1.4377    0.0000 C   0  0  0  0  0  0  0  0  0  0  0  0
    3.3208    0.9583    0.0000 C   0  0  0  0  0  0  0  0  0  0  0  0
    4.1913   -0.5035    0.0000 H   0  0  0  0  0  0  0  0  0  0  0  0
    2.4906   -1.4851    0.0000 H   0  0  0  0  0  0  0  0  0  0  0  0
    2.4911    2.4431    0.0000 H   0  0  0  0  0  0  0  0  0  0  0  0
    4.1917    1.4608    0.0000 H   0  0  0  0  0  0  0  0  0  0  0  0
    0.0000    0.0000    0.0000 C   0  0  0  0  0  0  0  0  0  0  0  0
   -0.8305   -0.4791    0.0000 C   0  0  0  0  0  0  0  0  0  0  0  0
   -1.6603    0.0003    0.0000 C   0  0  0  0  0  0  0  0  0  0  0  0
   -1.6601    0.9593    0.0000 C   0  0  0  0  0  0  0  0  0  0  0  0
   -0.8301    1.4383    0.0000 C   0  0  0  0  0  0  0  0  0  0  0  0
    0.0002    0.9589    0.0000 C   0  0  0  0  0  0  0  0  0  0  0  0
   -0.8308   -1.4845    0.0000 H   0  0  0  0  0  0  0  0  0  0  0  0
   -2.5312   -0.5022    0.0000 H   0  0  0  0  0  0  0  0  0  0  0  0
   -0.8301    2.4437    0.0000 H   0  0  0  0  0  0  0  0  0  0  0  0
    0.8303   -0.4794    0.0000 N   0  0  0  0  0  0  0  0  0  0  0  0
    0.8302   -1.4848    0.0000 H   0  0  0  0  0  0  0  0  0  0  0  0
   -2.4900    1.4386    0.0000 N   0  0  0  0  0  0  0  0  0  0  0  0
   -2.1937    2.3499    0.0000 O   0  0  0  0  0  0  0  0  0  0  0  0
   -3.4274    1.2395    0.0000 O   0  0  0  0  0  0  0  0  0  0  0  0
  1  2  2  0  0  0  0
  1  7  1  0  0  0  0
  2  3  1  0  0  0  0
  2  8  1  0  0  0  0
  3  4  2  0  0  0  0
  3 20  1  0  0  0  0
  4  5  1  0  0  0  0
  4 16  1  0  0  0  0
  5  6  2  0  0  0  0
  5  9  1  0  0  0  0
  6  1  1  0  0  0  0
  6 10  1  0  0  0  0
 11 12  2  0  0  0  0
 12 13  1  0  0  0  0
 12 17  1  0  0  0  0
 13 14  2  0  0  0  0
 13 18  1  0  0  0  0
 14 15  1  0  0  0  0
 14 22  1  0  0  0  0
 15 16  2  0  0  0  0
 15 19  1  0  0  0  0
 16 11  1  0  0  0  0
 20 11  1  0  0  0  0
 20 21  1  0  0  0  0
 22 23  2  0  0  0  0
 22 24  2  0  0  0  0
M  END
>  <activity>
Inactive

$$$$
mutag_d19
 OpenBabel01191712022D

 19 20  0  0  0  0  0  0  0  0999 V2000
    1.7321   -1.0000    0.0000 C   0  0  0  0  0  0  0  0  0  0  0  0
    0.8660   -1.5000    0.0000 C   0  0  0  0  0  0  0  0  0  0  0  0
    0.0000   -1.0000    0.0000 C   0  0  0  0  0  0  0  0  0  0  0  0
    0.0000   -0.0000    0.0000 C   0  0  0  0  0  0  0  0  0  0  0  0
    0.8660    0.5000    0.0000 C   0  0  0  0  0  0  0  0  0  0  0  0
    1.7321    0.0000    0.0000 C   0  0  0  0  0  0  0  0  0  0  0  0
    2.5981   -1.5000    0.0000 H   0  0  0  0  0  0  0  0  0  0  0  0
    0.8660   -2.5000    0.0000 H   0  0  0  0  0  0  0  0  0  0  0  0
    0.8660    1.5000    0.0000 H   0  0  0  0  0  0  0  0  0  0  0  0
   -0.8660   -1.5000    0.0000 N   0  0  0  0  0  0  0  0  0  0  0  0
   -1.7321   -1.0000    0.0000 C   0  0  0  0  0  0  0  0  0  0  0  0
   -1.7321   -0.0000    0.0000 C   0  0  0  0  0  0  0  0  0  0  0  0
   -0.8660    0.5000    0.0000 C   0  0  0  0  0  0  0  0  0  0  0  0
   -2.5981   -1.5000    0.0000 H   0  0  0  0  0  0  0  0  0  0  0  0
   -2.5981    0.5000    0.0000 H   0  0  0  0  0  0  0  0  0  0  0  0
   -0.8660    1.5000    0.0000 H   0  0  0  0  0  0  0  0  0  0  0  0
    2.5981    0.5000    0.0000 N   0  0  0  0  0  0  0  0  0  0  0  0
    3.4641    0.0000    0.0000 O   0  0  0  0  0  0  0  0  0  0  0  0
    2.5981    1.5000    0.0000 O   0  0  0  0  0  0  0  0  0  0  0  0
  1  2  2  0  0  0  0
  1  7  1  0  0  0  0
  2  3  1  0  0  0  0
  2  8  1  0  0  0  0
  3  4  2  0  0  0  0
  3 10  1  0  0  0  0
  4  5  1  0  0  0  0
  5  6  2  0  0  0  0
  5  9  1  0  0  0  0
  6  1  1  0  0  0  0
 10 11  2  0  0  0  0
 11 12  1  0  0  0  0
 11 14  1  0  0  0  0
 12 13  2  0  0  0  0
 12 15  1  0  0  0  0
 13  4  1  0  0  0  0
 13 16  1  0  0  0  0
 17  6  1  0  0  0  0
 18 17  2  0  0  0  0
 19 17  2  0  0  0  0
M  END
>  <activity>
Inactive

$$$$
mutag_d2
 OpenBabel01191712022D

 19 20  0  0  0  0  0  0  0  0999 V2000
   -1.7321    1.0000    0.0000 C   0  0  0  0  0  0  0  0  0  0  0  0
   -0.8660    1.5000    0.0000 C   0  0  0  0  0  0  0  0  0  0  0  0
    0.0000    1.0000    0.0000 C   0  0  0  0  0  0  0  0  0  0  0  0
    0.0000    0.0000    0.0000 C   0  0  0  0  0  0  0  0  0  0  0  0
   -0.8660   -0.5000    0.0000 C   0  0  0  0  0  0  0  0  0  0  0  0
   -1.7321    0.0000    0.0000 C   0  0  0  0  0  0  0  0  0  0  0  0
   -2.5981    1.5000    0.0000 H   0  0  0  0  0  0  0  0  0  0  0  0
   -0.8660   -1.5000    0.0000 H   0  0  0  0  0  0  0  0  0  0  0  0
   -2.5981   -0.5000    0.0000 H   0  0  0  0  0  0  0  0  0  0  0  0
    0.8660    1.5000    0.0000 N   0  0  0  0  0  0  0  0  0  0  0  0
    1.7321    1.0000    0.0000 C   0  0  0  0  0  0  0  0  0  0  0  0
    1.7321   -0.0000    0.0000 C   0  0  0  0  0  0  0  0  0  0  0  0
    0.8660   -0.5000    0.0000 C   0  0  0  0  0  0  0  0  0  0  0  0
    2.5981    1.5000    0.0000 H   0  0  0  0  0  0  0  0  0  0  0  0
    2.5981   -0.5000    0.0000 H   0  0  0  0  0  0  0  0  0  0  0  0
    0.8660   -1.5000    0.0000 H   0  0  0  0  0  0  0  0  0  0  0  0
   -0.8660    2.5000    0.0000 N   0  0  0  0  0  0  0  0  0  0  0  0
    0.0000    3.0000    0.0000 O   0  0  0  0  0  0  0  0  0  0  0  0
   -1.7321    3.0000    0.0000 O   0  0  0  0  0  0  0  0  0  0  0  0
  1  2  2  0  0  0  0
  1  7  1  0  0  0  0
  2  3  1  0  0  0  0
  3  4  2  0  0  0  0
  3 10  1  0  0  0  0
  4  5  1  0  0  0  0
  5  6  2  0  0  0  0
  5  8  1  0  0  0  0
  6  1  1  0  0  0  0
  6  9  1  0  0  0  0
 10 11  2  0  0  0  0
 11 12  1  0  0  0  0
 11 14  1  0  0  0  0
 12 13  2  0  0  0  0
 12 15  1  0  0  0  0
 13  4  1  0  0  0  0
 13 16  1  0  0  0  0
 17  2  1  0  0  0  0
 17 18  2  0  0  0  0
 17 19  2  0  0  0  0
M  END
>  <activity>
Inactive

$$$$
mutag_d20
 OpenBabel01191712022D

 26 28  0  0  0  0  0  0  0  0999 V2000
    3.3381   -0.0007    0.0000 C   0  0  0  0  0  0  0  0  0  0  0  0
    2.5037   -0.4822    0.0000 C   0  0  0  0  0  0  0  0  0  0  0  0
    1.6690   -0.0003    0.0000 C   0  0  0  0  0  0  0  0  0  0  0  0
    1.6692    0.9636    0.0000 C   0  0  0  0  0  0  0  0  0  0  0  0
    2.5041    1.4452    0.0000 C   0  0  0  0  0  0  0  0  0  0  0  0
    3.3383    0.9633    0.0000 C   0  0  0  0  0  0  0  0  0  0  0  0
    0.0000   -0.0000    0.0000 C   0  0  0  0  0  0  0  0  0  0  0  0
   -0.8349   -0.4816    0.0000 C   0  0  0  0  0  0  0  0  0  0  0  0
   -1.6690    0.0003    0.0000 C   0  0  0  0  0  0  0  0  0  0  0  0
   -1.6688    0.9643    0.0000 C   0  0  0  0  0  0  0  0  0  0  0  0
   -0.8345    1.4459    0.0000 C   0  0  0  0  0  0  0  0  0  0  0  0
    0.0002    0.9640    0.0000 C   0  0  0  0  0  0  0  0  0  0  0  0
    0.8347   -0.4819    0.0000 C   0  0  0  0  0  0  0  0  0  0  0  0
    4.1723   -0.4825    0.0000 N   0  0  0  0  0  0  0  0  0  0  0  0
    4.2728   -1.4406    0.0000 O   0  0  0  0  0  0  0  0  0  0  0  0
    4.9517    0.0836    0.0000 O   0  0  0  0  0  0  0  0  0  0  0  0
    2.5036   -1.4850    0.0000 H   0  0  0  0  0  0  0  0  0  0  0  0
    2.5042    2.4480    0.0000 H   0  0  0  0  0  0  0  0  0  0  0  0
    4.2068    1.4645    0.0000 H   0  0  0  0  0  0  0  0  0  0  0  0
   -0.8352   -1.4844    0.0000 H   0  0  0  0  0  0  0  0  0  0  0  0
   -2.5372    1.4659    0.0000 H   0  0  0  0  0  0  0  0  0  0  0  0
   -0.8344    2.4487    0.0000 H   0  0  0  0  0  0  0  0  0  0  0  0
    0.8346   -1.4847    0.0000 H   0  0  0  0  0  0  0  0  0  0  0  0
   -0.0339   -0.9832    0.0000 H   0  0  0  0  0  0  0  0  0  0  0  0
   -2.5034   -0.4812    0.0000 C   0  0  0  0  0  0  0  0  0  0  0  0
   -2.3032   -1.4236    0.0000 N   0  0  0  0  0  0  0  0  0  0  0  0
  1  2  2  0  0  0  0
  1 14  1  0  0  0  0
  2  3  1  0  0  0  0
  2 17  1  0  0  0  0
  3  4  2  0  0  0  0
  3 13  1  0  0  0  0
  4  5  1  0  0  0  0
  4 12  1  0  0  0  0
  5  6  2  0  0  0  0
  5 18  1  0  0  0  0
  6  1  1  0  0  0  0
  6 19  1  0  0  0  0
  7  8  2  0  0  0  0
  8  9  1  0  0  0  0
  8 20  1  0  0  0  0
  9 10  2  0  0  0  0
  9 25  1  0  0  0  0
 10 11  1  0  0  0  0
 10 21  1  0  0  0  0
 11 12  2  0  0  0  0
 11 22  1  0  0  0  0
 12  7  1  0  0  0  0
 13  7  1  0  0  0  0
 13 23  1  0  0  0  0
 13 24  1  0  0  0  0
 14 15  2  0  0  0  0
 14 16  2  0  0  0  0
 25 26  3  0  0  0  0
M  END
>  <activity>
Active

$$$$
mutag_d21
 OpenBabel01191712022D

 26 27  0  0  0  0  0  0  0  0999 V2000
    2.5981    1.5000    0.0000 C   0  0  0  0  0  0  0  0  0  0  0  0
    2.5981    0.5000    0.0000 C   0  0  0  0  0  0  0  0  0  0  0  0
    1.7321   -0.0000    0.0000 C   0  0  0  0  0  0  0  0  0  0  0  0
    0.8660    0.5000    0.0000 C   0  0  0  0  0  0  0  0  0  0  0  0
    0.8660    1.5000    0.0000 C   0  0  0  0  0  0  0  0  0  0  0  0
    1.7321    2.0000    0.0000 C   0  0  0  0  0  0  0  0  0  0  0  0
    3.4641    2.0000    0.0000 H   0  0  0  0  0  0  0  0  0  0  0  0
    3.4641   -0.0000    0.0000 H   0  0  0  0  0  0  0  0  0  0  0  0
    1.7321   -1.0000    0.0000 H   0  0  0  0  0  0  0  0  0  0  0  0
    0.0000    2.0000    0.0000 H   0  0  0  0  0  0  0  0  0  0  0  0
    0.0000   -0.0000    0.0000 C   0  0  0  0  0  0  0  0  0  0  0  0
   -0.0000   -1.0000    0.0000 C   0  0  0  0  0  0  0  0  0  0  0  0
   -0.8660   -1.5000    0.0000 C   0  0  0  0  0  0  0  0  0  0  0  0
   -1.7321   -1.0000    0.0000 C   0  0  0  0  0  0  0  0  0  0  0  0
   -1.7321    0.0000    0.0000 C   0  0  0  0  0  0  0  0  0  0  0  0
   -0.8660    0.5000    0.0000 C   0  0  0  0  0  0  0  0  0  0  0  0
    0.8660   -1.5000    0.0000 H   0  0  0  0  0  0  0  0  0  0  0  0
   -0.8660   -2.5000    0.0000 H   0  0  0  0  0  0  0  0  0  0  0  0
   -2.5981    0.5000    0.0000 H   0  0  0  0  0  0  0  0  0  0  0  0
   -0.8660    1.5000    0.0000 H   0  0  0  0  0  0  0  0  0  0  0  0
   -2.5981   -1.5000    0.0000 N   0  0  0  0  0  0  0  0  0  0  0  0
    1.7321    3.0000    0.0000 N   0  0  0  0  0  0  0  0  0  0  0  0
   -3.4641   -1.0000    0.0000 O   0  0  0  0  0  0  0  0  0  0  0  0
   -2.5981   -2.5000    0.0000 O   0  0  0  0  0  0  0  0  0  0  0  0
    2.5981    3.5000    0.0000 O   0  0  0  0  0  0  0  0  0  0  0  0
    0.8660    3.5000    0.0000 O   0  0  0  0  0  0  0  0  0  0  0  0
  1  2  2  0  0  0  0
  1  7  1  0  0  0  0
  2  3  1  0  0  0  0
  2  8  1  0  0  0  0
  3  4  2  0  0  0  0
  3  9  1  0  0  0  0
  4  5  1  0  0  0  0
  4 11  1  0  0  0  0
  5  6  2  0  0  0  0
  5 10  1  0  0  0  0
  6  1  1  0  0  0  0
 11 12  2  0  0  0  0
 12 13  1  0  0  0  0
 12 17  1  0  0  0  0
 13 14  2  0  0  0  0
 13 18  1  0  0  0  0
 14 15  1  0  0  0  0
 15 16  2  0  0  0  0
 15 19  1  0  0  0  0
 16 11  1  0  0  0  0
 16 20  1  0  0  0  0
 21 14  1  0  0  0  0
 22  6  1  0  0  0  0
 22 26  2  0  0  0  0
 23 21  2  0  0  0  0
 24 21  2  0  0  0  0
 25 22  2  0  0  0  0
M  END
>  <activity>
Active

$$$$
mutag_d22
 OpenBabel01191712022D

 25 27  0  0  0  0  0  0  0  0999 V2000
    3.3273   -0.0007    0.0000 C   0  0  0  0  0  0  0  0  0  0  0  0
    2.4956   -0.4807    0.0000 C   0  0  0  0  0  0  0  0  0  0  0  0
    1.6637   -0.0003    0.0000 C   0  0  0  0  0  0  0  0  0  0  0  0
    1.6638    0.9605    0.0000 C   0  0  0  0  0  0  0  0  0  0  0  0
    2.4960    1.4405    0.0000 C   0  0  0  0  0  0  0  0  0  0  0  0
    3.3275    0.9602    0.0000 C   0  0  0  0  0  0  0  0  0  0  0  0
    0.0000    0.0000    0.0000 C   0  0  0  0  0  0  0  0  0  0  0  0
   -0.8322   -0.4800    0.0000 C   0  0  0  0  0  0  0  0  0  0  0  0
   -1.6637    0.0003    0.0000 C   0  0  0  0  0  0  0  0  0  0  0  0
   -1.6635    0.9612    0.0000 C   0  0  0  0  0  0  0  0  0  0  0  0
   -0.8318    1.4412    0.0000 C   0  0  0  0  0  0  0  0  0  0  0  0
    0.0002    0.9609    0.0000 C   0  0  0  0  0  0  0  0  0  0  0  0
    0.8320   -0.4803    0.0000 C   0  0  0  0  0  0  0  0  0  0  0  0
   -2.5362   -0.5032    0.0000 I   0  0  0  0  0  0  0  0  0  0  0  0
    4.1588   -0.4809    0.0000 N   0  0  0  0  0  0  0  0  0  0  0  0
    4.2590   -1.4359    0.0000 O   0  0  0  0  0  0  0  0  0  0  0  0
    4.9358    0.0834    0.0000 O   0  0  0  0  0  0  0  0  0  0  0  0
    2.4956   -1.4807    0.0000 H   0  0  0  0  0  0  0  0  0  0  0  0
    2.4961    2.4405    0.0000 H   0  0  0  0  0  0  0  0  0  0  0  0
    4.1936    1.4600    0.0000 H   0  0  0  0  0  0  0  0  0  0  0  0
   -0.8325   -1.4800    0.0000 H   0  0  0  0  0  0  0  0  0  0  0  0
   -2.5294    1.4613    0.0000 H   0  0  0  0  0  0  0  0  0  0  0  0
   -0.8317    2.4412    0.0000 H   0  0  0  0  0  0  0  0  0  0  0  0
    0.8319   -1.4803    0.0000 H   0  0  0  0  0  0  0  0  0  0  0  0
   -0.0341   -0.9802    0.0000 H   0  0  0  0  0  0  0  0  0  0  0  0
  1  2  2  0  0  0  0
  1 15  1  0  0  0  0
  2  3  1  0  0  0  0
  2 18  1  0  0  0  0
  3  4  2  0  0  0  0
  3 13  1  0  0  0  0
  4  5  1  0  0  0  0
  4 12  1  0  0  0  0
  5  6  2  0  0  0  0
  5 19  1  0  0  0  0
  6  1  1  0  0  0  0
  6 20  1  0  0  0  0
  7  8  2  0  0  0  0
  8  9  1  0  0  0  0
  8 21  1  0  0  0  0
  9 10  2  0  0  0  0
  9 14  1  0  0  0  0
 10 11  1  0  0  0  0
 10 22  1  0  0  0  0
 11 12  2  0  0  0  0
 11 23  1  0  0  0  0
 12  7  1  0  0  0  0
 13  7  1  0  0  0  0
 13 24  1  0  0  0  0
 13 25  1  0  0  0  0
 15 16  2  0  0  0  0
 15 17  2  0  0  0  0
M  END
>  <activity>
Active

$$$$
mutag_d23
 OpenBabel01191712022D

 34 38  0  0  0  0  0  0  0  0999 V2000
    5.1084   -2.9473    0.0000 C   0  0  0  0  0  0  0  0  0  0  0  0
    5.1081   -1.9642    0.0000 C   0  0  0  0  0  0  0  0  0  0  0  0
    4.2571   -1.4729    0.0000 C   0  0  0  0  0  0  0  0  0  0  0  0
    3.4064   -1.9647    0.0000 C   0  0  0  0  0  0  0  0  0  0  0  0
    3.4067   -2.9478    0.0000 C   0  0  0  0  0  0  0  0  0  0  0  0
    4.2577   -3.4392    0.0000 C   0  0  0  0  0  0  0  0  0  0  0  0
    2.5548   -1.4734    0.0000 C   0  0  0  0  0  0  0  0  0  0  0  0
    1.7035   -1.9652    0.0000 C   0  0  0  0  0  0  0  0  0  0  0  0
    1.7037   -2.9483    0.0000 C   0  0  0  0  0  0  0  0  0  0  0  0
    2.5553   -3.4396    0.0000 C   0  0  0  0  0  0  0  0  0  0  0  0
    2.5545   -0.4908    0.0000 C   0  0  0  0  0  0  0  0  0  0  0  0
    1.7029    0.0005    0.0000 C   0  0  0  0  0  0  0  0  0  0  0  0
    0.8516   -0.4913    0.0000 C   0  0  0  0  0  0  0  0  0  0  0  0
    0.8519   -1.4739    0.0000 C   0  0  0  0  0  0  0  0  0  0  0  0
    1.5341    0.7393    0.0000 C   0  0  0  0  0  0  0  0  0  0  0  0
    0.8511    1.0679    0.0000 C   0  0  0  0  0  0  0  0  0  0  0  0
    0.1684    0.7389    0.0000 C   0  0  0  0  0  0  0  0  0  0  0  0
    0.0000   -0.0000    0.0000 C   0  0  0  0  0  0  0  0  0  0  0  0
   -0.8498   -1.4743    0.0000 C   0  0  0  0  0  0  0  0  0  0  0  0
   -0.8501   -0.4918    0.0000 C   0  0  0  0  0  0  0  0  0  0  0  0
    5.9574   -3.4371    0.0000 H   0  0  0  0  0  0  0  0  0  0  0  0
    5.9569   -1.4740    0.0000 H   0  0  0  0  0  0  0  0  0  0  0  0
    4.2568   -0.4927    0.0000 H   0  0  0  0  0  0  0  0  0  0  0  0
    4.2579   -4.4193    0.0000 H   0  0  0  0  0  0  0  0  0  0  0  0
    0.8550   -3.4387    0.0000 H   0  0  0  0  0  0  0  0  0  0  0  0
    2.5556   -4.4198    0.0000 H   0  0  0  0  0  0  0  0  0  0  0  0
    3.4032   -0.0005    0.0000 H   0  0  0  0  0  0  0  0  0  0  0  0
    2.3304    1.3748    0.0000 H   0  0  0  0  0  0  0  0  0  0  0  0
    0.8509    2.0868    0.0000 H   0  0  0  0  0  0  0  0  0  0  0  0
   -0.6283    1.3739    0.0000 H   0  0  0  0  0  0  0  0  0  0  0  0
   -1.5427   -2.1676    0.0000 H   0  0  0  0  0  0  0  0  0  0  0  0
   -1.7010   -0.0012    0.0000 N   0  0  0  0  0  0  0  0  0  0  0  0
   -1.8042    0.9755    0.0000 O   0  0  0  0  0  0  0  0  0  0  0  0
   -2.4952   -0.5790    0.0000 O   0  0  0  0  0  0  0  0  0  0  0  0
  1  2  2  0  0  0  0
  1 21  1  0  0  0  0
  2  3  1  0  0  0  0
  2 22  1  0  0  0  0
  3  4  2  0  0  0  0
  3 23  1  0  0  0  0
  4  5  1  0  0  0  0
  4  7  1  0  0  0  0
  5  6  2  0  0  0  0
  6  1  1  0  0  0  0
  6 24  1  0  0  0  0
  7  8  2  0  0  0  0
  7 11  1  0  0  0  0
  8  9  1  0  0  0  0
  9 10  2  0  0  0  0
  9 25  1  0  0  0  0
 10  5  1  0  0  0  0
 10 26  1  0  0  0  0
 11 12  2  0  0  0  0
 11 27  1  0  0  0  0
 12 13  1  0  0  0  0
 12 15  1  0  0  0  0
 13 14  2  0  0  0  0
 14  8  1  0  0  0  0
 15 16  2  0  0  0  0
 15 28  1  0  0  0  0
 16 17  1  0  0  0  0
 16 29  1  0  0  0  0
 17 18  2  0  0  0  0
 17 30  1  0  0  0  0
 18 13  1  0  0  0  0
 19 14  1  0  0  0  0
 19 20  2  0  0  0  0
 19 31  1  0  0  0  0
 20 18  1  0  0  0  0
 32 20  1  0  0  0  0
 32 34  2  0  0  0  0
 33 32  2  0  0  0  0
M  END
>  <activity>
Active

$$$$
mutag_d24
 OpenBabel01191712022D

 38 44  0  0  0  0  0  0  0  0999 V2000
   -0.7608   -0.4388    0.0000 C   0  0  0  0  0  0  0  0  0  0  0  0
   -1.5212    0.0006    0.0000 C   0  0  0  0  0  0  0  0  0  0  0  0
   -1.5208    0.8789    0.0000 C   0  0  0  0  0  0  0  0  0  0  0  0
   -0.7600    1.3177    0.0000 C   0  0  0  0  0  0  0  0  0  0  0  0
    0.0004    0.8783    0.0000 C   0  0  0  0  0  0  0  0  0  0  0  0
   -0.0000   -0.0000    0.0000 C   0  0  0  0  0  0  0  0  0  0  0  0
   -0.7611   -1.3170    0.0000 H   0  0  0  0  0  0  0  0  0  0  0  0
   -2.2819   -0.4381    0.0000 H   0  0  0  0  0  0  0  0  0  0  0  0
   -2.2811    1.3183    0.0000 C   0  0  0  0  0  0  0  0  0  0  0  0
   -2.2807    2.1963    0.0000 C   0  0  0  0  0  0  0  0  0  0  0  0
   -1.5201    2.6351    0.0000 C   0  0  0  0  0  0  0  0  0  0  0  0
   -0.7597    2.1960    0.0000 C   0  0  0  0  0  0  0  0  0  0  0  0
   -3.0418    0.8795    0.0000 H   0  0  0  0  0  0  0  0  0  0  0  0
   -3.0411    2.6358    0.0000 H   0  0  0  0  0  0  0  0  0  0  0  0
   -1.5197    3.5133    0.0000 C   0  0  0  0  0  0  0  0  0  0  0  0
   -0.7589    3.9522    0.0000 C   0  0  0  0  0  0  0  0  0  0  0  0
    0.0015    3.5127    0.0000 C   0  0  0  0  0  0  0  0  0  0  0  0
    0.0011    2.6344    0.0000 C   0  0  0  0  0  0  0  0  0  0  0  0
   -2.2801    3.9528    0.0000 H   0  0  0  0  0  0  0  0  0  0  0  0
   -0.7586    4.8304    0.0000 H   0  0  0  0  0  0  0  0  0  0  0  0
    0.7623    3.9515    0.0000 C   0  0  0  0  0  0  0  0  0  0  0  0
    1.5227    3.5121    0.0000 C   0  0  0  0  0  0  0  0  0  0  0  0
    1.5223    2.6338    0.0000 C   0  0  0  0  0  0  0  0  0  0  0  0
    0.7615    2.1954    0.0000 C   0  0  0  0  0  0  0  0  0  0  0  0
    0.7626    4.8297    0.0000 H   0  0  0  0  0  0  0  0  0  0  0  0
    2.2827    2.1948    0.0000 C   0  0  0  0  0  0  0  0  0  0  0  0
    2.2823    1.3165    0.0000 C   0  0  0  0  0  0  0  0  0  0  0  0
    1.5216    0.8776    0.0000 C   0  0  0  0  0  0  0  0  0  0  0  0
    0.7611    1.3171    0.0000 C   0  0  0  0  0  0  0  0  0  0  0  0
    3.0434    2.6337    0.0000 H   0  0  0  0  0  0  0  0  0  0  0  0
    3.0427    0.8770    0.0000 H   0  0  0  0  0  0  0  0  0  0  0  0
    1.5212   -0.0006    0.0000 C   0  0  0  0  0  0  0  0  0  0  0  0
    0.7604   -0.4395    0.0000 C   0  0  0  0  0  0  0  0  0  0  0  0
    2.2816   -0.4401    0.0000 H   0  0  0  0  0  0  0  0  0  0  0  0
    0.7600   -1.3177    0.0000 H   0  0  0  0  0  0  0  0  0  0  0  0
    2.2835    3.9509    0.0000 N   0  0  0  0  0  0  0  0  0  0  0  0
    3.0465    3.5161    0.0000 O   0  0  0  0  0  0  0  0  0  0  0  0
    2.2784    4.8291    0.0000 O   0  0  0  0  0  0  0  0  0  0  0  0
  1  2  2  0  0  0  0
  1  7  1  0  0  0  0
  2  3  1  0  0  0  0
  2  8  1  0  0  0  0
  3  4  2  0  0  0  0
  3  9  1  0  0  0  0
  4  5  1  0  0  0  0
  5  6  2  0  0  0  0
  5 29  1  0  0  0  0
  6  1  1  0  0  0  0
  9 10  2  0  0  0  0
  9 13  1  0  0  0  0
 10 11  1  0  0  0  0
 10 14  1  0  0  0  0
 11 12  2  0  0  0  0
 11 15  1  0  0  0  0
 12  4  1  0  0  0  0
 15 16  2  0  0  0  0
 15 19  1  0  0  0  0
 16 17  1  0  0  0  0
 16 20  1  0  0  0  0
 17 18  2  0  0  0  0
 17 21  1  0  0  0  0
 18 12  1  0  0  0  0
 21 22  2  0  0  0  0
 21 25  1  0  0  0  0
 22 23  1  0  0  0  0
 23 24  2  0  0  0  0
 23 26  1  0  0  0  0
 24 18  1  0  0  0  0
 26 27  2  0  0  0  0
 26 30  1  0  0  0  0
 27 28  1  0  0  0  0
 27 31  1  0  0  0  0
 28 29  2  0  0  0  0
 28 32  1  0  0  0  0
 29 24  1  0  0  0  0
 32 33  2  0  0  0  0
 32 34  1  0  0  0  0
 33  6  1  0  0  0  0
 33 35  1  0  0  0  0
 36 22  1  0  0  0  0
 36 37  2  0  0  0  0
 36 38  2  0  0  0  0
M  END
>  <activity>
Active

$$$$
mutag_d25
 OpenBabel01191712022D

 26 28  0  0  0  0  0  0  0  0999 V2000
    3.3418   -0.0007    0.0000 C   0  0  0  0  0  0  0  0  0  0  0  0
    2.5065   -0.4828    0.0000 C   0  0  0  0  0  0  0  0  0  0  0  0
    1.6709   -0.0003    0.0000 C   0  0  0  0  0  0  0  0  0  0  0  0
    1.6711    0.9647    0.0000 C   0  0  0  0  0  0  0  0  0  0  0  0
    2.5069    1.4468    0.0000 C   0  0  0  0  0  0  0  0  0  0  0  0
    3.3420    0.9644    0.0000 C   0  0  0  0  0  0  0  0  0  0  0  0
    0.0000    0.0000    0.0000 C   0  0  0  0  0  0  0  0  0  0  0  0
   -0.8358   -0.4821    0.0000 C   0  0  0  0  0  0  0  0  0  0  0  0
   -1.6709    0.0003    0.0000 C   0  0  0  0  0  0  0  0  0  0  0  0
   -1.6707    0.9654    0.0000 C   0  0  0  0  0  0  0  0  0  0  0  0
   -0.8354    1.4475    0.0000 C   0  0  0  0  0  0  0  0  0  0  0  0
    0.0002    0.9651    0.0000 C   0  0  0  0  0  0  0  0  0  0  0  0
    0.8356   -0.4824    0.0000 C   0  0  0  0  0  0  0  0  0  0  0  0
   -2.5063   -0.4817    0.0000 O   0  0  0  0  0  0  0  0  0  0  0  0
    4.1770   -0.4830    0.0000 N   0  0  0  0  0  0  0  0  0  0  0  0
    4.2776   -1.4422    0.0000 O   0  0  0  0  0  0  0  0  0  0  0  0
    4.9573    0.0837    0.0000 O   0  0  0  0  0  0  0  0  0  0  0  0
    2.5065   -1.4828    0.0000 H   0  0  0  0  0  0  0  0  0  0  0  0
    2.5070    2.4468    0.0000 H   0  0  0  0  0  0  0  0  0  0  0  0
    4.2082    1.4642    0.0000 H   0  0  0  0  0  0  0  0  0  0  0  0
   -0.8361   -1.4821    0.0000 H   0  0  0  0  0  0  0  0  0  0  0  0
   -2.5367    1.4655    0.0000 H   0  0  0  0  0  0  0  0  0  0  0  0
   -0.8354    2.4475    0.0000 H   0  0  0  0  0  0  0  0  0  0  0  0
   -2.3060   -1.4251    0.0000 H   0  0  0  0  0  0  0  0  0  0  0  0
    0.8355   -1.4824    0.0000 H   0  0  0  0  0  0  0  0  0  0  0  0
   -0.0305   -0.9823    0.0000 H   0  0  0  0  0  0  0  0  0  0  0  0
  1  2  2  0  0  0  0
  1 15  1  0  0  0  0
  2  3  1  0  0  0  0
  2 18  1  0  0  0  0
  3  4  2  0  0  0  0
  3 13  1  0  0  0  0
  4  5  1  0  0  0  0
  4 12  1  0  0  0  0
  5  6  2  0  0  0  0
  5 19  1  0  0  0  0
  6  1  1  0  0  0  0
  6 20  1  0  0  0  0
  7  8  2  0  0  0  0
  8  9  1  0  0  0  0
  8 21  1  0  0  0  0
  9 10  2  0  0  0  0
  9 14  1  0  0  0  0
 10 11  1  0  0  0  0
 10 22  1  0  0  0  0
 11 12  2  0  0  0  0
 11 23  1  0  0  0  0
 12  7  1  0  0  0  0
 13  7  1  0  0  0  0
 13 25  1  0  0  0  0
 13 26  1  0  0  0  0
 14 24  1  0  0  0  0
 15 16  2  0  0  0  0
 15 17  2  0  0  0  0
M  END
>  <activity>
Active

$$$$
mutag_d26
 OpenBabel01191712022D

 16 16  0  0  0  0  0  0  0  0999 V2000
   -0.0000   -0.0000    0.0000 C   0  0  0  0  0  0  0  0  0  0  0  0
   -0.8660    0.5000    0.0000 C   0  0  0  0  0  0  0  0  0  0  0  0
   -0.8660    1.5000    0.0000 C   0  0  0  0  0  0  0  0  0  0  0  0
   -0.0000    2.0000    0.0000 C   0  0  0  0  0  0  0  0  0  0  0  0
    0.8660    1.5000    0.0000 C   0  0  0  0  0  0  0  0  0  0  0  0
    0.8660    0.5000    0.0000 C   0  0  0  0  0  0  0  0  0  0  0  0
   -0.0000   -1.0000    0.0000 H   0  0  0  0  0  0  0  0  0  0  0  0
   -1.7321    2.0000    0.0000 H   0  0  0  0  0  0  0  0  0  0  0  0
    1.7321    0.0000    0.0000 H   0  0  0  0  0  0  0  0  0  0  0  0
    1.7321    2.0000    0.0000 Cl  0  0  0  0  0  0  0  0  0  0  0  0
   -0.0000    3.0000    0.0000 N   0  0  0  0  0  0  0  0  0  0  0  0
   -1.7321   -0.0000    0.0000 N   0  0  0  0  0  0  0  0  0  0  0  0
    0.8660    3.5000    0.0000 O   0  0  0  0  0  0  0  0  0  0  0  0
   -0.8660    3.5000    0.0000 O   0  0  0  0  0  0  0  0  0  0  0  0
   -2.5981    0.5000    0.0000 O   0  0  0  0  0  0  0  0  0  0  0  0
   -1.7321   -1.0000    0.0000 O   0  0  0  0  0  0  0  0  0  0  0  0
  1  2  2  0  0  0  0
  1  7  1  0  0  0  0
  2  3  1  0  0  0  0
  2 12  1  0  0  0  0
  3  4  2  0  0  0  0
  3  8  1  0  0  0  0
  4  5  1  0  0  0  0
  4 11  1  0  0  0  0
  5  6  2  0  0  0  0
  6  1  1  0  0  0  0
  6  9  1  0  0  0  0
 10  5  1  0  0  0  0
 11 14  2  0  0  0  0
 12 16  2  0  0  0  0
 13 11  2  0  0  0  0
 15 12  2  0  0  0  0
M  END
>  <activity>
Active

$$$$
mutag_d27
 OpenBabel01191712022D

 34 38  0  0  0  0  0  0  0  0999 V2000
    4.1058   -2.3644    0.0000 C   0  0  0  0  0  0  0  0  0  0  0  0
    3.2859   -2.8408    0.0000 C   0  0  0  0  0  0  0  0  0  0  0  0
    2.4634   -2.3690    0.0000 C   0  0  0  0  0  0  0  0  0  0  0  0
    2.4608   -1.4207    0.0000 C   0  0  0  0  0  0  0  0  0  0  0  0
    3.2806   -0.9443    0.0000 C   0  0  0  0  0  0  0  0  0  0  0  0
    4.1032   -1.4161    0.0000 C   0  0  0  0  0  0  0  0  0  0  0  0
    4.9267   -2.8353    0.0000 H   0  0  0  0  0  0  0  0  0  0  0  0
    3.2886   -3.7872    0.0000 H   0  0  0  0  0  0  0  0  0  0  0  0
    3.2780    0.0021    0.0000 H   0  0  0  0  0  0  0  0  0  0  0  0
    4.9215   -0.9407    0.0000 H   0  0  0  0  0  0  0  0  0  0  0  0
    1.6380   -2.8457    0.0000 C   0  0  0  0  0  0  0  0  0  0  0  0
    0.8178   -2.3721    0.0000 C   0  0  0  0  0  0  0  0  0  0  0  0
    0.8229   -1.4218    0.0000 C   0  0  0  0  0  0  0  0  0  0  0  0
    1.6405   -0.9471    0.0000 C   0  0  0  0  0  0  0  0  0  0  0  0
    1.6381   -3.7925    0.0000 H   0  0  0  0  0  0  0  0  0  0  0  0
    0.0030   -2.8419    0.0000 C   0  0  0  0  0  0  0  0  0  0  0  0
   -0.8127   -2.3709    0.0000 C   0  0  0  0  0  0  0  0  0  0  0  0
   -0.8227   -1.4250    0.0000 C   0  0  0  0  0  0  0  0  0  0  0  0
    0.0072   -0.9508    0.0000 C   0  0  0  0  0  0  0  0  0  0  0  0
    0.0031   -3.7886    0.0000 H   0  0  0  0  0  0  0  0  0  0  0  0
   -1.6301   -2.8486    0.0000 H   0  0  0  0  0  0  0  0  0  0  0  0
    0.0000   -0.0000    0.0000 C   0  0  0  0  0  0  0  0  0  0  0  0
    0.8242    0.4643    0.0000 C   0  0  0  0  0  0  0  0  0  0  0  0
    1.6399   -0.0067    0.0000 C   0  0  0  0  0  0  0  0  0  0  0  0
    0.8292    1.4110    0.0000 H   0  0  0  0  0  0  0  0  0  0  0  0
    2.4597    0.4670    0.0000 H   0  0  0  0  0  0  0  0  0  0  0  0
   -1.6430   -0.9514    0.0000 C   0  0  0  0  0  0  0  0  0  0  0  0
   -1.6390   -0.0135    0.0000 C   0  0  0  0  0  0  0  0  0  0  0  0
   -0.8203    0.4736    0.0000 C   0  0  0  0  0  0  0  0  0  0  0  0
   -2.4627   -1.4250    0.0000 H   0  0  0  0  0  0  0  0  0  0  0  0
   -2.4610    0.4562    0.0000 H   0  0  0  0  0  0  0  0  0  0  0  0
   -0.8264    1.4207    0.0000 N   0  0  0  0  0  0  0  0  0  0  0  0
   -0.3427    2.2350    0.0000 O   0  0  0  0  0  0  0  0  0  0  0  0
   -1.7735    1.4325    0.0000 O   0  0  0  0  0  0  0  0  0  0  0  0
  1  2  2  0  0  0  0
  1  7  1  0  0  0  0
  2  3  1  0  0  0  0
  2  8  1  0  0  0  0
  3  4  2  0  0  0  0
  3 11  1  0  0  0  0
  4  5  1  0  0  0  0
  5  6  2  0  0  0  0
  5  9  1  0  0  0  0
  6  1  1  0  0  0  0
  6 10  1  0  0  0  0
 11 12  2  0  0  0  0
 11 15  1  0  0  0  0
 12 13  1  0  0  0  0
 12 16  1  0  0  0  0
 13 14  2  0  0  0  0
 14  4  1  0  0  0  0
 16 17  2  0  0  0  0
 16 20  1  0  0  0  0
 17 18  1  0  0  0  0
 17 21  1  0  0  0  0
 18 19  2  0  0  0  0
 18 27  1  0  0  0  0
 19 13  1  0  0  0  0
 19 22  1  0  0  0  0
 22 23  1  0  0  0  0
 23 24  2  0  0  0  0
 23 25  1  0  0  0  0
 24 14  1  0  0  0  0
 24 26  1  0  0  0  0
 27 28  2  0  0  0  0
 27 30  1  0  0  0  0
 28 29  1  0  0  0  0
 28 31  1  0  0  0  0
 29 22  2  0  0  0  0
 32 29  1  0  0  0  0
 32 33  2  0  0  0  0
 32 34  2  0  0  0  0
M  END
>  <activity>
Active

$$$$
mutag_d28
 OpenBabel01191712022D

 25 27  0  0  0  0  0  0  0  0999 V2000
   -3.3287    0.0007    0.0000 C   0  0  0  0  0  0  0  0  0  0  0  0
   -2.4967    0.4809    0.0000 C   0  0  0  0  0  0  0  0  0  0  0  0
   -1.6643    0.0003    0.0000 C   0  0  0  0  0  0  0  0  0  0  0  0
   -1.6645   -0.9609    0.0000 C   0  0  0  0  0  0  0  0  0  0  0  0
   -2.4970   -1.4411    0.0000 C   0  0  0  0  0  0  0  0  0  0  0  0
   -3.3289   -0.9606    0.0000 C   0  0  0  0  0  0  0  0  0  0  0  0
    0.0000   -0.0000    0.0000 C   0  0  0  0  0  0  0  0  0  0  0  0
    0.8325    0.4802    0.0000 C   0  0  0  0  0  0  0  0  0  0  0  0
    1.6643   -0.0003    0.0000 C   0  0  0  0  0  0  0  0  0  0  0  0
    1.6641   -0.9616    0.0000 C   0  0  0  0  0  0  0  0  0  0  0  0
    0.8321   -1.4418    0.0000 C   0  0  0  0  0  0  0  0  0  0  0  0
   -0.0002   -0.9613    0.0000 C   0  0  0  0  0  0  0  0  0  0  0  0
   -0.8323    0.4805    0.0000 C   0  0  0  0  0  0  0  0  0  0  0  0
   -4.1605    0.4811    0.0000 N   0  0  0  0  0  0  0  0  0  0  0  0
   -4.2608    1.4365    0.0000 O   0  0  0  0  0  0  0  0  0  0  0  0
   -4.9378   -0.0834    0.0000 O   0  0  0  0  0  0  0  0  0  0  0  0
    2.5305    0.4995    0.0000 F   0  0  0  0  0  0  0  0  0  0  0  0
   -2.4966    1.4809    0.0000 H   0  0  0  0  0  0  0  0  0  0  0  0
   -2.4971   -2.4411    0.0000 H   0  0  0  0  0  0  0  0  0  0  0  0
   -4.1950   -1.4604    0.0000 H   0  0  0  0  0  0  0  0  0  0  0  0
    0.8328    1.4802    0.0000 H   0  0  0  0  0  0  0  0  0  0  0  0
    2.5301   -1.4617    0.0000 H   0  0  0  0  0  0  0  0  0  0  0  0
    0.8321   -2.4418    0.0000 H   0  0  0  0  0  0  0  0  0  0  0  0
   -0.8323    1.4805    0.0000 H   0  0  0  0  0  0  0  0  0  0  0  0
    0.0338    0.9804    0.0000 H   0  0  0  0  0  0  0  0  0  0  0  0
  1  2  2  0  0  0  0
  1 14  1  0  0  0  0
  2  3  1  0  0  0  0
  2 18  1  0  0  0  0
  3  4  2  0  0  0  0
  3 13  1  0  0  0  0
  4  5  1  0  0  0  0
  4 12  1  0  0  0  0
  5  6  2  0  0  0  0
  5 19  1  0  0  0  0
  6  1  1  0  0  0  0
  6 20  1  0  0  0  0
  7  8  2  0  0  0  0
  8  9  1  0  0  0  0
  8 21  1  0  0  0  0
  9 10  2  0  0  0  0
  9 17  1  0  0  0  0
 10 11  1  0  0  0  0
 10 22  1  0  0  0  0
 11 12  2  0  0  0  0
 11 23  1  0  0  0  0
 12  7  1  0  0  0  0
 13  7  1  0  0  0  0
 13 24  1  0  0  0  0
 13 25  1  0  0  0  0
 14 15  2  0  0  0  0
 14 16  2  0  0  0  0
M  END
>  <activity>
Active

$$$$
mutag_d29
 OpenBabel01191712022D

 29 31  0  0  0  0  0  0  0  0999 V2000
    3.3618   -0.0007    0.0000 C   0  0  0  0  0  0  0  0  0  0  0  0
    2.5215   -0.4857    0.0000 C   0  0  0  0  0  0  0  0  0  0  0  0
    1.6809   -0.0003    0.0000 C   0  0  0  0  0  0  0  0  0  0  0  0
    1.6811    0.9705    0.0000 C   0  0  0  0  0  0  0  0  0  0  0  0
    2.5219    1.4554    0.0000 C   0  0  0  0  0  0  0  0  0  0  0  0
    3.3619    0.9701    0.0000 C   0  0  0  0  0  0  0  0  0  0  0  0
   -0.0000   -0.0000    0.0000 C   0  0  0  0  0  0  0  0  0  0  0  0
   -0.8408   -0.4850    0.0000 C   0  0  0  0  0  0  0  0  0  0  0  0
   -1.6809    0.0003    0.0000 C   0  0  0  0  0  0  0  0  0  0  0  0
   -1.6807    0.9711    0.0000 C   0  0  0  0  0  0  0  0  0  0  0  0
   -0.8404    1.4561    0.0000 C   0  0  0  0  0  0  0  0  0  0  0  0
    0.0002    0.9708    0.0000 C   0  0  0  0  0  0  0  0  0  0  0  0
    0.8406   -0.4853    0.0000 C   0  0  3  0  0  0  0  0  0  0  0  0
    4.2019   -0.4859    0.0000 N   0  0  0  0  0  0  0  0  0  0  0  0
    4.3031   -1.4508    0.0000 O   0  0  0  0  0  0  0  0  0  0  0  0
    4.9869    0.0842    0.0000 O   0  0  0  0  0  0  0  0  0  0  0  0
   -2.5212   -0.4846    0.0000 N   0  0  0  0  0  0  0  0  0  0  0  0
   -3.4438   -0.1846    0.0000 O   0  0  0  0  0  0  0  0  0  0  0  0
   -2.3197   -1.4336    0.0000 O   0  0  0  0  0  0  0  0  0  0  0  0
   -0.8403    2.4263    0.0000 N   0  0  0  0  0  0  0  0  0  0  0  0
    0.1087    2.6280    0.0000 O   0  0  0  0  0  0  0  0  0  0  0  0
   -1.4895    3.1474    0.0000 O   0  0  0  0  0  0  0  0  0  0  0  0
    0.8405   -1.4853    0.0000 F   0  0  0  0  0  0  0  0  0  0  0  0
    2.5214   -1.4857    0.0000 H   0  0  0  0  0  0  0  0  0  0  0  0
    2.5219    2.4554    0.0000 H   0  0  0  0  0  0  0  0  0  0  0  0
    4.2281    1.4699    0.0000 H   0  0  0  0  0  0  0  0  0  0  0  0
   -0.8411   -1.4850    0.0000 H   0  0  0  0  0  0  0  0  0  0  0  0
   -2.5466    1.4713    0.0000 H   0  0  0  0  0  0  0  0  0  0  0  0
    1.7066   -0.9853    0.0000 H   0  0  0  0  0  0  0  0  0  0  0  0
  1  2  2  0  0  0  0
  1 14  1  0  0  0  0
  2  3  1  0  0  0  0
  2 24  1  0  0  0  0
  3  4  2  0  0  0  0
  3 13  1  0  0  0  0
  4  5  1  0  0  0  0
  4 12  1  0  0  0  0
  5  6  2  0  0  0  0
  5 25  1  0  0  0  0
  6  1  1  0  0  0  0
  6 26  1  0  0  0  0
  7  8  2  0  0  0  0
  8  9  1  0  0  0  0
  8 27  1  0  0  0  0
  9 10  2  0  0  0  0
  9 17  1  0  0  0  0
 10 11  1  0  0  0  0
 10 28  1  0  0  0  0
 11 12  2  0  0  0  0
 12  7  1  0  0  0  0
 13  7  1  0  0  0  0
 13 23  1  0  0  0  0
 13 29  1  0  0  0  0
 14 15  2  0  0  0  0
 14 16  2  0  0  0  0
 18 17  2  0  0  0  0
 19 17  2  0  0  0  0
 20 11  1  0  0  0  0
 21 20  2  0  0  0  0
 22 20  2  0  0  0  0
M  END
>  <activity>
Active

$$$$
mutag_d3
 OpenBabel01191712022D

 19 20  0  0  0  0  0  0  0  0999 V2000
    1.7321   -1.0000    0.0000 C   0  0  0  0  0  0  0  0  0  0  0  0
    0.8660   -1.5000    0.0000 C   0  0  0  0  0  0  0  0  0  0  0  0
   -0.0000   -1.0000    0.0000 C   0  0  0  0  0  0  0  0  0  0  0  0
    0.0000   -0.0000    0.0000 C   0  0  0  0  0  0  0  0  0  0  0  0
    0.8660    0.5000    0.0000 C   0  0  0  0  0  0  0  0  0  0  0  0
    1.7321    0.0000    0.0000 C   0  0  0  0  0  0  0  0  0  0  0  0
    2.5981   -1.5000    0.0000 H   0  0  0  0  0  0  0  0  0  0  0  0
    0.8660   -2.5000    0.0000 H   0  0  0  0  0  0  0  0  0  0  0  0
    2.5981    0.5000    0.0000 H   0  0  0  0  0  0  0  0  0  0  0  0
   -0.8660   -1.5000    0.0000 N   0  0  0  0  0  0  0  0  0  0  0  0
   -1.7321   -1.0000    0.0000 C   0  0  0  0  0  0  0  0  0  0  0  0
   -1.7321    0.0000    0.0000 C   0  0  0  0  0  0  0  0  0  0  0  0
   -0.8660    0.5000    0.0000 C   0  0  0  0  0  0  0  0  0  0  0  0
   -2.5981   -1.5000    0.0000 H   0  0  0  0  0  0  0  0  0  0  0  0
   -2.5981    0.5000    0.0000 H   0  0  0  0  0  0  0  0  0  0  0  0
   -0.8660    1.5000    0.0000 H   0  0  0  0  0  0  0  0  0  0  0  0
    0.8660    1.5000    0.0000 N   0  0  0  0  0  0  0  0  0  0  0  0
    1.7321    2.0000    0.0000 O   0  0  0  0  0  0  0  0  0  0  0  0
   -0.0000    2.0000    0.0000 O   0  0  0  0  0  0  0  0  0  0  0  0
  1  2  2  0  0  0  0
  1  7  1  0  0  0  0
  2  3  1  0  0  0  0
  2  8  1  0  0  0  0
  3  4  2  0  0  0  0
  3 10  1  0  0  0  0
  4  5  1  0  0  0  0
  5  6  2  0  0  0  0
  6  1  1  0  0  0  0
  6  9  1  0  0  0  0
 10 11  2  0  0  0  0
 11 12  1  0  0  0  0
 11 14  1  0  0  0  0
 12 13  2  0  0  0  0
 12 15  1  0  0  0  0
 13  4  1  0  0  0  0
 13 16  1  0  0  0  0
 17  5  1  0  0  0  0
 17 18  2  0  0  0  0
 17 19  2  0  0  0  0
M  END
>  <activity>
Inactive

$$$$
mutag_d30
 OpenBabel01191712022D

 34 38  0  0  0  0  0  0  0  0999 V2000
    0.0002   -2.7066    0.0000 C   0  0  0  0  0  0  0  0  0  0  0  0
   -0.7812   -2.2555    0.0000 C   0  0  0  0  0  0  0  0  0  0  0  0
   -0.7812   -1.3535    0.0000 C   0  0  0  0  0  0  0  0  0  0  0  0
   -0.0001   -0.9024    0.0000 C   0  0  0  0  0  0  0  0  0  0  0  0
    0.7814   -1.3531    0.0000 C   0  0  0  0  0  0  0  0  0  0  0  0
    0.7813   -2.2555    0.0000 C   0  0  0  0  0  0  0  0  0  0  0  0
   -1.5626   -0.9024    0.0000 C   0  0  0  0  0  0  0  0  0  0  0  0
   -1.5628   -0.0002    0.0000 C   0  0  0  0  0  0  0  0  0  0  0  0
   -0.7816    0.4510    0.0000 C   0  0  0  0  0  0  0  0  0  0  0  0
    0.0000   -0.0000    0.0000 C   0  0  0  0  0  0  0  0  0  0  0  0
   -2.3439   -1.3537    0.0000 C   0  0  0  0  0  0  0  0  0  0  0  0
   -3.1253   -0.9028    0.0000 C   0  0  0  0  0  0  0  0  0  0  0  0
   -3.1255   -0.0005    0.0000 C   0  0  0  0  0  0  0  0  0  0  0  0
   -2.3443    0.4508    0.0000 C   0  0  0  0  0  0  0  0  0  0  0  0
   -3.9066   -1.3540    0.0000 C   0  0  0  0  0  0  0  0  0  0  0  0
   -4.6881   -0.9031    0.0000 C   0  0  0  0  0  0  0  0  0  0  0  0
   -4.6883   -0.0009    0.0000 C   0  0  0  0  0  0  0  0  0  0  0  0
   -3.9070    0.4504    0.0000 C   0  0  0  0  0  0  0  0  0  0  0  0
    1.5626   -0.9020    0.0000 C   0  0  0  0  0  0  0  0  0  0  0  0
    0.7812    0.4511    0.0000 C   0  0  0  0  0  0  0  0  0  0  0  0
    0.0002   -3.6403    0.0000 H   0  0  0  0  0  0  0  0  0  0  0  0
   -1.5897   -2.7223    0.0000 H   0  0  0  0  0  0  0  0  0  0  0  0
    1.5899   -2.7223    0.0000 H   0  0  0  0  0  0  0  0  0  0  0  0
   -0.7818    1.3846    0.0000 H   0  0  0  0  0  0  0  0  0  0  0  0
   -2.3436   -2.3030    0.0000 H   0  0  0  0  0  0  0  0  0  0  0  0
   -2.3445    1.4001    0.0000 H   0  0  0  0  0  0  0  0  0  0  0  0
   -3.9064   -2.3034    0.0000 H   0  0  0  0  0  0  0  0  0  0  0  0
   -5.5101   -1.3780    0.0000 H   0  0  0  0  0  0  0  0  0  0  0  0
   -5.5105    0.4736    0.0000 H   0  0  0  0  0  0  0  0  0  0  0  0
   -3.9072    1.3998    0.0000 H   0  0  0  0  0  0  0  0  0  0  0  0
    1.0227    1.3530    0.0000 H   0  0  0  0  0  0  0  0  0  0  0  0
    2.4339   -1.1353    0.0000 N   0  0  0  0  0  0  0  0  0  0  0  0
    2.4812   -2.0362    0.0000 O   0  0  0  0  0  0  0  0  0  0  0  0
    3.1904   -0.6440    0.0000 O   0  0  0  0  0  0  0  0  0  0  0  0
  1  2  2  0  0  0  0
  1 21  1  0  0  0  0
  2  3  1  0  0  0  0
  2 22  1  0  0  0  0
  3  4  2  0  0  0  0
  3  7  1  0  0  0  0
  4  5  1  0  0  0  0
  5  6  2  0  0  0  0
  6  1  1  0  0  0  0
  6 23  1  0  0  0  0
  7  8  2  0  0  0  0
  7 11  1  0  0  0  0
  8  9  1  0  0  0  0
  9 10  2  0  0  0  0
  9 24  1  0  0  0  0
 10  4  1  0  0  0  0
 11 12  2  0  0  0  0
 11 25  1  0  0  0  0
 12 13  1  0  0  0  0
 12 15  1  0  0  0  0
 13 14  2  0  0  0  0
 14  8  1  0  0  0  0
 14 26  1  0  0  0  0
 15 16  2  0  0  0  0
 15 27  1  0  0  0  0
 16 17  1  0  0  0  0
 16 28  1  0  0  0  0
 17 18  2  0  0  0  0
 17 29  1  0  0  0  0
 18 13  1  0  0  0  0
 18 30  1  0  0  0  0
 19  5  1  0  0  0  0
 19 20  2  0  0  0  0
 20 10  1  0  0  0  0
 20 31  1  0  0  0  0
 32 19  1  0  0  0  0
 33 32  2  0  0  0  0
 34 32  2  0  0  0  0
M  END
>  <activity>
Active

$$$$
mutag_d31
 OpenBabel01191712022D

 30 33  0  0  0  0  0  0  0  0999 V2000
    0.0006    2.8431    0.0000 C   0  0  0  0  0  0  0  0  0  0  0  0
    0.8215    2.3692    0.0000 C   0  0  0  0  0  0  0  0  0  0  0  0
    0.8213    1.4217    0.0000 C   0  0  0  0  0  0  0  0  0  0  0  0
    0.0002    0.9480    0.0000 C   0  0  0  0  0  0  0  0  0  0  0  0
   -0.8202    1.4220    0.0000 C   0  0  0  0  0  0  0  0  0  0  0  0
   -0.8200    2.3695    0.0000 C   0  0  0  0  0  0  0  0  0  0  0  0
    0.0008    3.8274    0.0000 H   0  0  0  0  0  0  0  0  0  0  0  0
    1.6739    2.8612    0.0000 H   0  0  0  0  0  0  0  0  0  0  0  0
   -1.6723    2.8618    0.0000 H   0  0  0  0  0  0  0  0  0  0  0  0
    1.6417    0.9477    0.0000 C   0  0  0  0  0  0  0  0  0  0  0  0
    1.6415   -0.0003    0.0000 C   0  0  0  0  0  0  0  0  0  0  0  0
    0.8209   -0.4739    0.0000 C   0  0  0  0  0  0  0  0  0  0  0  0
    0.0000    0.0000    0.0000 C   0  0  0  0  0  0  0  0  0  0  0  0
    2.4942    1.4396    0.0000 H   0  0  0  0  0  0  0  0  0  0  0  0
   -1.6413    0.9484    0.0000 C   0  0  0  0  0  0  0  0  0  0  0  0
   -1.6415    0.0003    0.0000 C   0  0  0  0  0  0  0  0  0  0  0  0
   -2.4625   -0.4733    0.0000 C   0  0  0  0  0  0  0  0  0  0  0  0
   -3.2829    0.0007    0.0000 C   0  0  0  0  0  0  0  0  0  0  0  0
   -3.2828    0.9487    0.0000 C   0  0  0  0  0  0  0  0  0  0  0  0
   -2.4622    1.4223    0.0000 C   0  0  0  0  0  0  0  0  0  0  0  0
   -4.1354   -0.4913    0.0000 H   0  0  0  0  0  0  0  0  0  0  0  0
   -4.1351    1.4410    0.0000 H   0  0  0  0  0  0  0  0  0  0  0  0
   -2.4621    2.4066    0.0000 H   0  0  0  0  0  0  0  0  0  0  0  0
    0.8208   -1.4214    0.0000 N   0  0  0  0  0  0  0  0  0  0  0  0
    2.4620   -0.4741    0.0000 N   0  0  0  0  0  0  0  0  0  0  0  0
    0.0301   -1.9433    0.0000 O   0  0  0  0  0  0  0  0  0  0  0  0
    1.6682   -1.8453    0.0000 O   0  0  0  0  0  0  0  0  0  0  0  0
    2.6589   -1.4009    0.0000 O   0  0  0  0  0  0  0  0  0  0  0  0
    3.1661    0.1598    0.0000 O   0  0  0  0  0  0  0  0  0  0  0  0
   -2.4626   -1.4506    0.0000 H   0  0  0  0  0  0  0  0  0  0  0  0
  1  2  2  0  0  0  0
  1  7  1  0  0  0  0
  2  3  1  0  0  0  0
  2  8  1  0  0  0  0
  3  4  2  0  0  0  0
  3 10  1  0  0  0  0
  4  5  1  0  0  0  0
  5  6  2  0  0  0  0
  6  1  1  0  0  0  0
  6  9  1  0  0  0  0
 10 11  2  0  0  0  0
 10 14  1  0  0  0  0
 11 12  1  0  0  0  0
 11 25  1  0  0  0  0
 12 13  2  0  0  0  0
 12 24  1  0  0  0  0
 13  4  1  0  0  0  0
 15 16  2  0  0  0  0
 15  5  1  0  0  0  0
 16 17  1  0  0  0  0
 16 13  1  0  0  0  0
 17 18  2  0  0  0  0
 17 30  1  0  0  0  0
 18 19  1  0  0  0  0
 18 21  1  0  0  0  0
 19 20  2  0  0  0  0
 19 22  1  0  0  0  0
 20 15  1  0  0  0  0
 20 23  1  0  0  0  0
 24 27  2  0  0  0  0
 25 28  2  0  0  0  0
 25 29  2  0  0  0  0
 26 24  2  0  0  0  0
M  END
>  <activity>
Active

$$$$
mutag_d32
 OpenBabel01191712022D

 30 31  0  0  0  0  0  0  0  0999 V2000
    3.3558    1.9375    0.0000 C   0  0  0  0  0  0  0  0  0  0  0  0
    3.3558    0.9687    0.0000 C   0  0  0  0  0  0  0  0  0  0  0  0
    2.5169    0.4844    0.0000 C   0  0  0  0  0  0  0  0  0  0  0  0
    1.6779    0.9687    0.0000 C   0  0  0  0  0  0  0  0  0  0  0  0
    1.6779    1.9375    0.0000 C   0  0  0  0  0  0  0  0  0  0  0  0
    2.5169    2.4219    0.0000 C   0  0  0  0  0  0  0  0  0  0  0  0
    4.1948    0.4844    0.0000 H   0  0  0  0  0  0  0  0  0  0  0  0
    2.5169   -0.4844    0.0000 H   0  0  0  0  0  0  0  0  0  0  0  0
    0.8390    2.4219    0.0000 H   0  0  0  0  0  0  0  0  0  0  0  0
    0.0000   -0.0000    0.0000 C   0  0  0  0  0  0  0  0  0  0  0  0
   -0.0000   -0.9688    0.0000 C   0  0  0  0  0  0  0  0  0  0  0  0
   -0.8390   -1.4531    0.0000 C   0  0  0  0  0  0  0  0  0  0  0  0
   -1.6779   -0.9687    0.0000 C   0  0  0  0  0  0  0  0  0  0  0  0
   -1.6779    0.0000    0.0000 C   0  0  0  0  0  0  0  0  0  0  0  0
   -0.8390    0.4844    0.0000 C   0  0  0  0  0  0  0  0  0  0  0  0
    0.8390   -1.4531    0.0000 H   0  0  0  0  0  0  0  0  0  0  0  0
   -0.8390   -2.4219    0.0000 H   0  0  0  0  0  0  0  0  0  0  0  0
   -2.5169    0.4844    0.0000 H   0  0  0  0  0  0  0  0  0  0  0  0
   -0.8390    1.4531    0.0000 N   0  0  0  0  0  0  0  0  0  0  0  0
   -2.5169   -1.4531    0.0000 N   0  0  0  0  0  0  0  0  0  0  0  0
    2.5169    3.3906    0.0000 N   0  0  0  0  0  0  0  0  0  0  0  0
    4.1948    2.4219    0.0000 N   0  0  0  0  0  0  0  0  0  0  0  0
   -0.0000    1.9375    0.0000 O   0  0  0  0  0  0  0  0  0  0  0  0
   -1.6779    1.9375    0.0000 O   0  0  0  0  0  0  0  0  0  0  0  0
   -3.3558   -0.9687    0.0000 O   0  0  0  0  0  0  0  0  0  0  0  0
   -2.5169   -2.4219    0.0000 O   0  0  0  0  0  0  0  0  0  0  0  0
    5.0338    1.9375    0.0000 O   0  0  0  0  0  0  0  0  0  0  0  0
    4.1948    3.3906    0.0000 O   0  0  0  0  0  0  0  0  0  0  0  0
    3.3558    3.8750    0.0000 O   0  0  0  0  0  0  0  0  0  0  0  0
    1.6779    3.8750    0.0000 O   0  0  0  0  0  0  0  0  0  0  0  0
  1  2  2  0  0  0  0
  1 22  1  0  0  0  0
  2  3  1  0  0  0  0
  2  7  1  0  0  0  0
  3  4  2  0  0  0  0
  3  8  1  0  0  0  0
  4  5  1  0  0  0  0
  5  6  2  0  0  0  0
  5  9  1  0  0  0  0
  6  1  1  0  0  0  0
  6 21  1  0  0  0  0
 10 11  2  0  0  0  0
 10  4  1  0  0  0  0
 11 12  1  0  0  0  0
 11 16  1  0  0  0  0
 12 13  2  0  0  0  0
 12 17  1  0  0  0  0
 13 14  1  0  0  0  0
 13 20  1  0  0  0  0
 14 15  2  0  0  0  0
 14 18  1  0  0  0  0
 15 10  1  0  0  0  0
 19 15  1  0  0  0  0
 19 24  2  0  0  0  0
 20 26  2  0  0  0  0
 21 30  2  0  0  0  0
 22 28  2  0  0  0  0
 23 19  2  0  0  0  0
 25 20  2  0  0  0  0
 27 22  2  0  0  0  0
 29 21  2  0  0  0  0
M  END
>  <activity>
Active

$$$$
mutag_d33
 OpenBabel01191712022D

 32 34  0  0  0  0  0  0  0  0999 V2000
    3.3535   -0.0007    0.0000 C   0  0  0  0  0  0  0  0  0  0  0  0
    2.5153   -0.4845    0.0000 C   0  0  0  0  0  0  0  0  0  0  0  0
    1.6768   -0.0003    0.0000 C   0  0  0  0  0  0  0  0  0  0  0  0
    1.6770    0.9681    0.0000 C   0  0  0  0  0  0  0  0  0  0  0  0
    2.5157    1.4519    0.0000 C   0  0  0  0  0  0  0  0  0  0  0  0
    3.3537    0.9678    0.0000 C   0  0  0  0  0  0  0  0  0  0  0  0
    2.5151   -1.4999    0.0000 H   0  0  0  0  0  0  0  0  0  0  0  0
    2.5159    2.4673    0.0000 H   0  0  0  0  0  0  0  0  0  0  0  0
    4.2332    1.4753    0.0000 H   0  0  0  0  0  0  0  0  0  0  0  0
    0.0000   -0.0000    0.0000 C   0  0  0  0  0  0  0  0  0  0  0  0
   -0.8387   -0.4838    0.0000 C   0  0  0  0  0  0  0  0  0  0  0  0
   -1.6768    0.0003    0.0000 C   0  0  0  0  0  0  0  0  0  0  0  0
   -1.6766    0.9688    0.0000 C   0  0  0  0  0  0  0  0  0  0  0  0
   -0.8383    1.4526    0.0000 C   0  0  0  0  0  0  0  0  0  0  0  0
    0.0002    0.9684    0.0000 C   0  0  0  0  0  0  0  0  0  0  0  0
   -0.8391   -1.4992    0.0000 H   0  0  0  0  0  0  0  0  0  0  0  0
   -2.5558    1.4766    0.0000 H   0  0  0  0  0  0  0  0  0  0  0  0
   -0.8383    2.4679    0.0000 H   0  0  0  0  0  0  0  0  0  0  0  0
    0.8385   -0.4841    0.0000 C   0  0  0  0  0  0  0  0  0  0  0  0
    0.8385   -1.4995    0.0000 H   0  0  0  0  0  0  0  0  0  0  0  0
    1.7179   -0.9918    0.0000 H   0  0  0  0  0  0  0  0  0  0  0  0
    4.1917   -0.4846    0.0000 N   0  0  0  0  0  0  0  0  0  0  0  0
    4.2928   -1.4471    0.0000 O   0  0  0  0  0  0  0  0  0  0  0  0
    4.9747    0.0843    0.0000 O   0  0  0  0  0  0  0  0  0  0  0  0
   -2.5150   -0.4834    0.0000 N   0  0  0  0  0  0  0  0  0  0  0  0
   -3.4354   -0.1841    0.0000 C   0  0  0  0  0  0  0  0  0  0  0  0
   -4.1548   -0.8315    0.0000 C   0  0  0  0  0  0  0  0  0  0  0  0
   -5.1015   -1.0325    0.0000 F   0  0  0  0  0  0  0  0  0  0  0  0
   -4.8022   -0.1122    0.0000 F   0  0  0  0  0  0  0  0  0  0  0  0
   -3.9538   -1.7783    0.0000 F   0  0  0  0  0  0  0  0  0  0  0  0
   -2.3140   -1.4301    0.0000 H   0  0  0  0  0  0  0  0  0  0  0  0
   -3.6364    0.7626    0.0000 O   0  0  0  0  0  0  0  0  0  0  0  0
  1  2  2  0  0  0  0
  1 22  1  0  0  0  0
  2  3  1  0  0  0  0
  2  7  1  0  0  0  0
  3  4  2  0  0  0  0
  3 19  1  0  0  0  0
  4  5  1  0  0  0  0
  4 15  1  0  0  0  0
  5  6  2  0  0  0  0
  5  8  1  0  0  0  0
  6  1  1  0  0  0  0
  6  9  1  0  0  0  0
 10 11  2  0  0  0  0
 11 12  1  0  0  0  0
 11 16  1  0  0  0  0
 12 13  2  0  0  0  0
 12 25  1  0  0  0  0
 13 14  1  0  0  0  0
 13 17  1  0  0  0  0
 14 15  2  0  0  0  0
 14 18  1  0  0  0  0
 15 10  1  0  0  0  0
 19 10  1  0  0  0  0
 19 20  1  0  0  0  0
 19 21  1  0  0  0  0
 22 24  2  0  0  0  0
 23 22  2  0  0  0  0
 25 26  1  0  0  0  0
 25 31  1  0  0  0  0
 26 27  1  0  0  0  0
 26 32  2  0  0  0  0
 27 28  1  0  0  0  0
 27 29  1  0  0  0  0
 27 30  1  0  0  0  0
M  END
>  <activity>
Active

$$$$
mutag_d34
 OpenBabel01191712022D

 20 21  0  0  0  0  0  0  0  0999 V2000
    1.7321   -1.0000    0.0000 C   0  0  0  0  0  0  0  0  0  0  0  0
    0.8660   -1.5000    0.0000 C   0  0  0  0  0  0  0  0  0  0  0  0
   -0.0000   -1.0000    0.0000 C   0  0  0  0  0  0  0  0  0  0  0  0
    0.0000   -0.0000    0.0000 C   0  0  0  0  0  0  0  0  0  0  0  0
    0.8660    0.5000    0.0000 C   0  0  0  0  0  0  0  0  0  0  0  0
    1.7321   -0.0000    0.0000 C   0  0  0  0  0  0  0  0  0  0  0  0
    2.5981   -1.5000    0.0000 H   0  0  0  0  0  0  0  0  0  0  0  0
    0.8660   -2.5000    0.0000 H   0  0  0  0  0  0  0  0  0  0  0  0
    0.8660    1.5000    0.0000 H   0  0  0  0  0  0  0  0  0  0  0  0
    2.5981    0.5000    0.0000 H   0  0  0  0  0  0  0  0  0  0  0  0
   -0.8660   -1.5000    0.0000 C   0  0  0  0  0  0  0  0  0  0  0  0
   -1.7321   -1.0000    0.0000 C   0  0  0  0  0  0  0  0  0  0  0  0
   -1.7321    0.0000    0.0000 C   0  0  0  0  0  0  0  0  0  0  0  0
   -0.8660    0.5000    0.0000 C   0  0  0  0  0  0  0  0  0  0  0  0
   -0.8660   -2.5000    0.0000 H   0  0  0  0  0  0  0  0  0  0  0  0
   -2.5981   -1.5000    0.0000 H   0  0  0  0  0  0  0  0  0  0  0  0
   -0.8660    1.5000    0.0000 H   0  0  0  0  0  0  0  0  0  0  0  0
   -2.5981    0.5000    0.0000 N   0  0  0  0  0  0  0  0  0  0  0  0
   -2.5981    1.5000    0.0000 O   0  0  0  0  0  0  0  0  0  0  0  0
   -3.4641    0.0000    0.0000 O   0  0  0  0  0  0  0  0  0  0  0  0
  1  2  2  0  0  0  0
  1  7  1  0  0  0  0
  2  3  1  0  0  0  0
  2  8  1  0  0  0  0
  3  4  2  0  0  0  0
  3 11  1  0  0  0  0
  4  5  1  0  0  0  0
  5  6  2  0  0  0  0
  5  9  1  0  0  0  0
  6  1  1  0  0  0  0
  6 10  1  0  0  0  0
 11 12  2  0  0  0  0
 11 15  1  0  0  0  0
 12 13  1  0  0  0  0
 12 16  1  0  0  0  0
 13 14  2  0  0  0  0
 14  4  1  0  0  0  0
 14 17  1  0  0  0  0
 18 13  1  0  0  0  0
 18 20  2  0  0  0  0
 19 18  2  0  0  0  0
M  END
>  <activity>
Inactive

$$$$
mutag_d35
 OpenBabel01191712022D

 27 29  0  0  0  0  0  0  0  0999 V2000
    3.3350   -0.0007    0.0000 C   0  0  0  0  0  0  0  0  0  0  0  0
    2.5014   -0.4818    0.0000 C   0  0  0  0  0  0  0  0  0  0  0  0
    1.6675   -0.0003    0.0000 C   0  0  0  0  0  0  0  0  0  0  0  0
    1.6677    0.9627    0.0000 C   0  0  0  0  0  0  0  0  0  0  0  0
    2.5018    1.4439    0.0000 C   0  0  0  0  0  0  0  0  0  0  0  0
    3.3352    0.9624    0.0000 C   0  0  0  0  0  0  0  0  0  0  0  0
    2.5012   -1.4916    0.0000 H   0  0  0  0  0  0  0  0  0  0  0  0
    2.5020    2.4537    0.0000 H   0  0  0  0  0  0  0  0  0  0  0  0
    4.2098    1.4671    0.0000 H   0  0  0  0  0  0  0  0  0  0  0  0
    0.0000   -0.0000    0.0000 C   0  0  0  0  0  0  0  0  0  0  0  0
   -0.8341   -0.4811    0.0000 C   0  0  0  0  0  0  0  0  0  0  0  0
   -1.6675    0.0003    0.0000 C   0  0  0  0  0  0  0  0  0  0  0  0
   -1.6673    0.9634    0.0000 C   0  0  0  0  0  0  0  0  0  0  0  0
   -0.8337    1.4445    0.0000 C   0  0  0  0  0  0  0  0  0  0  0  0
    0.0002    0.9631    0.0000 C   0  0  0  0  0  0  0  0  0  0  0  0
   -0.8344   -1.4909    0.0000 H   0  0  0  0  0  0  0  0  0  0  0  0
   -2.5417    1.4685    0.0000 H   0  0  0  0  0  0  0  0  0  0  0  0
   -0.8336    2.4543    0.0000 H   0  0  0  0  0  0  0  0  0  0  0  0
    0.8339   -0.4815    0.0000 C   0  0  0  0  0  0  0  0  0  0  0  0
    0.8338   -1.4912    0.0000 H   0  0  0  0  0  0  0  0  0  0  0  0
    1.7084   -0.9864    0.0000 H   0  0  0  0  0  0  0  0  0  0  0  0
    4.1685   -0.4819    0.0000 N   0  0  0  0  0  0  0  0  0  0  0  0
   -2.5012   -0.4807    0.0000 N   0  0  0  0  0  0  0  0  0  0  0  0
    4.2692   -1.4391    0.0000 O   0  0  0  0  0  0  0  0  0  0  0  0
    4.9472    0.0838    0.0000 O   0  0  0  0  0  0  0  0  0  0  0  0
   -3.4165   -0.1831    0.0000 H   0  0  0  0  0  0  0  0  0  0  0  0
   -2.3013   -1.4222    0.0000 H   0  0  0  0  0  0  0  0  0  0  0  0
  1  2  2  0  0  0  0
  1 22  1  0  0  0  0
  2  3  1  0  0  0  0
  2  7  1  0  0  0  0
  3  4  2  0  0  0  0
  3 19  1  0  0  0  0
  4  5  1  0  0  0  0
  4 15  1  0  0  0  0
  5  6  2  0  0  0  0
  5  8  1  0  0  0  0
  6  1  1  0  0  0  0
  6  9  1  0  0  0  0
 10 11  2  0  0  0  0
 11 12  1  0  0  0  0
 11 16  1  0  0  0  0
 12 13  2  0  0  0  0
 12 23  1  0  0  0  0
 13 14  1  0  0  0  0
 13 17  1  0  0  0  0
 14 15  2  0  0  0  0
 14 18  1  0  0  0  0
 15 10  1  0  0  0  0
 19 10  1  0  0  0  0
 19 20  1  0  0  0  0
 19 21  1  0  0  0  0
 22 25  2  0  0  0  0
 23 26  1  0  0  0  0
 23 27  1  0  0  0  0
 24 22  2  0  0  0  0
M  END
>  <activity>
Active

$$$$
mutag_d36
 OpenBabel01191712022D

 23 24  0  0  0  0  0  0  0  0999 V2000
    1.7321   -1.0000    0.0000 C   0  0  0  0  0  0  0  0  0  0  0  0
    0.8660   -1.5000    0.0000 C   0  0  0  0  0  0  0  0  0  0  0  0
   -0.0000   -1.0000    0.0000 C   0  0  0  0  0  0  0  0  0  0  0  0
    0.0000   -0.0000    0.0000 C   0  0  0  0  0  0  0  0  0  0  0  0
    0.8660    0.5000    0.0000 C   0  0  0  0  0  0  0  0  0  0  0  0
    1.7321   -0.0000    0.0000 C   0  0  0  0  0  0  0  0  0  0  0  0
    2.5981   -1.5000    0.0000 H   0  0  0  0  0  0  0  0  0  0  0  0
    0.8660   -2.5000    0.0000 H   0  0  0  0  0  0  0  0  0  0  0  0
    0.8660    1.5000    0.0000 H   0  0  0  0  0  0  0  0  0  0  0  0
    2.5981    0.5000    0.0000 H   0  0  0  0  0  0  0  0  0  0  0  0
   -0.8660   -1.5000    0.0000 C   0  0  0  0  0  0  0  0  0  0  0  0
   -1.7321   -1.0000    0.0000 C   0  0  0  0  0  0  0  0  0  0  0  0
   -1.7321    0.0000    0.0000 C   0  0  0  0  0  0  0  0  0  0  0  0
   -0.8660    0.5000    0.0000 C   0  0  0  0  0  0  0  0  0  0  0  0
   -0.8660   -2.5000    0.0000 H   0  0  0  0  0  0  0  0  0  0  0  0
   -0.8660    1.5000    0.0000 H   0  0  0  0  0  0  0  0  0  0  0  0
   -2.5981   -1.5000    0.0000 C   0  0  0  0  0  0  0  0  0  0  0  0
   -3.0981   -2.3660    0.0000 H   0  0  0  0  0  0  0  0  0  0  0  0
   -2.0981   -2.3660    0.0000 H   0  0  0  0  0  0  0  0  0  0  0  0
   -3.4641   -1.0000    0.0000 H   0  0  0  0  0  0  0  0  0  0  0  0
   -2.5981    0.5000    0.0000 N   0  0  0  0  0  0  0  0  0  0  0  0
   -2.5981    1.5000    0.0000 O   0  0  0  0  0  0  0  0  0  0  0  0
   -3.4641    0.0000    0.0000 O   0  0  0  0  0  0  0  0  0  0  0  0
  1  2  2  0  0  0  0
  1  7  1  0  0  0  0
  2  3  1  0  0  0  0
  2  8  1  0  0  0  0
  3  4  2  0  0  0  0
  3 11  1  0  0  0  0
  4  5  1  0  0  0  0
  5  6  2  0  0  0  0
  5  9  1  0  0  0  0
  6  1  1  0  0  0  0
  6 10  1  0  0  0  0
 11 12  2  0  0  0  0
 11 15  1  0  0  0  0
 12 13  1  0  0  0  0
 12 17  1  0  0  0  0
 13 14  2  0  0  0  0
 13 21  1  0  0  0  0
 14  4  1  0  0  0  0
 14 16  1  0  0  0  0
 17 18  1  0  0  0  0
 17 19  1  0  0  0  0
 17 20  1  0  0  0  0
 21 23  2  0  0  0  0
 22 21  2  0  0  0  0
M  END
>  <activity>
Inactive

$$$$
mutag_d37
 OpenBabel01191712022D

 30 31  0  0  0  0  0  0  0  0999 V2000
   -4.3301   -1.5000    0.0000 C   0  0  0  0  0  0  0  0  0  0  0  0
   -4.3301   -0.5000    0.0000 C   0  0  0  0  0  0  0  0  0  0  0  0
   -3.4641    0.0000    0.0000 C   0  0  0  0  0  0  0  0  0  0  0  0
   -2.5981   -0.5000    0.0000 C   0  0  0  0  0  0  0  0  0  0  0  0
   -2.5981   -1.5000    0.0000 C   0  0  0  0  0  0  0  0  0  0  0  0
   -3.4641   -2.0000    0.0000 C   0  0  0  0  0  0  0  0  0  0  0  0
   -5.1962    0.0000    0.0000 H   0  0  0  0  0  0  0  0  0  0  0  0
   -3.4641    1.0000    0.0000 H   0  0  0  0  0  0  0  0  0  0  0  0
   -1.7321   -2.0000    0.0000 H   0  0  0  0  0  0  0  0  0  0  0  0
   -3.4641   -3.0000    0.0000 H   0  0  0  0  0  0  0  0  0  0  0  0
   -1.7321    0.0000    0.0000 C   0  0  0  0  0  0  0  0  0  0  0  0
   -0.8660   -0.5000    0.0000 C   0  0  0  0  0  0  0  0  0  0  0  0
   -1.2321    0.8660    0.0000 H   0  0  0  0  0  0  0  0  0  0  0  0
   -2.2321    0.8660    0.0000 H   0  0  0  0  0  0  0  0  0  0  0  0
    0.0000    0.0000    0.0000 C   0  0  0  0  0  0  0  0  0  0  0  0
   -0.3660   -1.3660    0.0000 H   0  0  0  0  0  0  0  0  0  0  0  0
   -1.3660   -1.3660    0.0000 H   0  0  0  0  0  0  0  0  0  0  0  0
    0.8660   -0.5000    0.0000 C   0  0  0  0  0  0  0  0  0  0  0  0
    1.7321   -0.0000    0.0000 C   0  0  0  0  0  0  0  0  0  0  0  0
    1.7321    1.0000    0.0000 C   0  0  0  0  0  0  0  0  0  0  0  0
    0.8660    1.5000    0.0000 C   0  0  0  0  0  0  0  0  0  0  0  0
    0.0000    1.0000    0.0000 C   0  0  0  0  0  0  0  0  0  0  0  0
    0.8660   -1.5000    0.0000 H   0  0  0  0  0  0  0  0  0  0  0  0
    2.5981   -0.5000    0.0000 H   0  0  0  0  0  0  0  0  0  0  0  0
    2.5981    1.5000    0.0000 H   0  0  0  0  0  0  0  0  0  0  0  0
    0.8660    2.5000    0.0000 H   0  0  0  0  0  0  0  0  0  0  0  0
   -0.8660    1.5000    0.0000 H   0  0  0  0  0  0  0  0  0  0  0  0
   -5.1962   -2.0000    0.0000 N   0  0  0  0  0  0  0  0  0  0  0  0
   -6.0622   -1.5000    0.0000 O   0  0  0  0  0  0  0  0  0  0  0  0
   -5.1962   -3.0000    0.0000 O   0  0  0  0  0  0  0  0  0  0  0  0
  1  2  2  0  0  0  0
  1 28  1  0  0  0  0
  2  3  1  0  0  0  0
  2  7  1  0  0  0  0
  3  4  2  0  0  0  0
  3  8  1  0  0  0  0
  4  5  1  0  0  0  0
  4 11  1  0  0  0  0
  5  6  2  0  0  0  0
  5  9  1  0  0  0  0
  6  1  1  0  0  0  0
  6 10  1  0  0  0  0
 11 12  1  0  0  0  0
 11 13  1  0  0  0  0
 11 14  1  0  0  0  0
 12 15  1  0  0  0  0
 12 16  1  0  0  0  0
 12 17  1  0  0  0  0
 15 18  2  0  0  0  0
 18 19  1  0  0  0  0
 18 23  1  0  0  0  0
 19 20  2  0  0  0  0
 19 24  1  0  0  0  0
 20 21  1  0  0  0  0
 20 25  1  0  0  0  0
 21 22  2  0  0  0  0
 21 26  1  0  0  0  0
 22 15  1  0  0  0  0
 22 27  1  0  0  0  0
 28 30  2  0  0  0  0
 29 28  2  0  0  0  0
M  END
>  <activity>
Active

$$$$
mutag_d38
 OpenBabel01191712022D

 24 25  0  0  0  0  0  0  0  0999 V2000
    2.5981    1.5000    0.0000 C   0  0  0  0  0  0  0  0  0  0  0  0
    2.5981    0.5000    0.0000 C   0  0  0  0  0  0  0  0  0  0  0  0
    1.7321   -0.0000    0.0000 C   0  0  0  0  0  0  0  0  0  0  0  0
    0.8660    0.5000    0.0000 C   0  0  0  0  0  0  0  0  0  0  0  0
    0.8660    1.5000    0.0000 C   0  0  0  0  0  0  0  0  0  0  0  0
    1.7321    2.0000    0.0000 C   0  0  0  0  0  0  0  0  0  0  0  0
    3.4641    2.0000    0.0000 H   0  0  0  0  0  0  0  0  0  0  0  0
    3.4641   -0.0000    0.0000 H   0  0  0  0  0  0  0  0  0  0  0  0
    1.7321   -1.0000    0.0000 H   0  0  0  0  0  0  0  0  0  0  0  0
    0.0000    2.0000    0.0000 H   0  0  0  0  0  0  0  0  0  0  0  0
    1.7321    3.0000    0.0000 H   0  0  0  0  0  0  0  0  0  0  0  0
    0.0000   -0.0000    0.0000 C   0  0  0  0  0  0  0  0  0  0  0  0
   -0.0000   -1.0000    0.0000 C   0  0  0  0  0  0  0  0  0  0  0  0
   -0.8660   -1.5000    0.0000 C   0  0  0  0  0  0  0  0  0  0  0  0
   -1.7321   -1.0000    0.0000 C   0  0  0  0  0  0  0  0  0  0  0  0
   -1.7321    0.0000    0.0000 C   0  0  0  0  0  0  0  0  0  0  0  0
   -0.8660    0.5000    0.0000 C   0  0  0  0  0  0  0  0  0  0  0  0
    0.8660   -1.5000    0.0000 H   0  0  0  0  0  0  0  0  0  0  0  0
   -0.8660   -2.5000    0.0000 H   0  0  0  0  0  0  0  0  0  0  0  0
   -2.5981    0.5000    0.0000 H   0  0  0  0  0  0  0  0  0  0  0  0
   -0.8660    1.5000    0.0000 H   0  0  0  0  0  0  0  0  0  0  0  0
   -2.5981   -1.5000    0.0000 N   0  0  0  0  0  0  0  0  0  0  0  0
   -3.4641   -1.0000    0.0000 O   0  0  0  0  0  0  0  0  0  0  0  0
   -2.5981   -2.5000    0.0000 O   0  0  0  0  0  0  0  0  0  0  0  0
  1  2  2  0  0  0  0
  1  7  1  0  0  0  0
  2  3  1  0  0  0  0
  2  8  1  0  0  0  0
  3  4  2  0  0  0  0
  3  9  1  0  0  0  0
  4  5  1  0  0  0  0
  5  6  2  0  0  0  0
  5 10  1  0  0  0  0
  6  1  1  0  0  0  0
  6 11  1  0  0  0  0
 12 13  2  0  0  0  0
 12  4  1  0  0  0  0
 13 14  1  0  0  0  0
 13 18  1  0  0  0  0
 14 15  2  0  0  0  0
 14 19  1  0  0  0  0
 15 16  1  0  0  0  0
 16 17  2  0  0  0  0
 16 20  1  0  0  0  0
 17 12  1  0  0  0  0
 17 21  1  0  0  0  0
 22 15  1  0  0  0  0
 22 24  2  0  0  0  0
 23 22  2  0  0  0  0
M  END
>  <activity>
Inactive

$$$$
mutag_d39
 OpenBabel01191712022D

 23 24  0  0  0  0  0  0  0  0999 V2000
   -1.7321    1.0000    0.0000 C   0  0  0  0  0  0  0  0  0  0  0  0
   -0.8660    1.5000    0.0000 C   0  0  0  0  0  0  0  0  0  0  0  0
    0.0000    1.0000    0.0000 C   0  0  0  0  0  0  0  0  0  0  0  0
    0.0000    0.0000    0.0000 C   0  0  0  0  0  0  0  0  0  0  0  0
   -0.8660   -0.5000    0.0000 C   0  0  0  0  0  0  0  0  0  0  0  0
   -1.7321    0.0000    0.0000 C   0  0  0  0  0  0  0  0  0  0  0  0
   -2.5981    1.5000    0.0000 H   0  0  0  0  0  0  0  0  0  0  0  0
   -0.8660   -1.5000    0.0000 H   0  0  0  0  0  0  0  0  0  0  0  0
    0.8660    1.5000    0.0000 N   0  0  0  0  0  0  0  0  0  0  0  0
    1.7321    1.0000    0.0000 C   0  0  0  0  0  0  0  0  0  0  0  0
    1.7321   -0.0000    0.0000 C   0  0  0  0  0  0  0  0  0  0  0  0
    0.8660   -0.5000    0.0000 C   0  0  0  0  0  0  0  0  0  0  0  0
    2.5981    1.5000    0.0000 H   0  0  0  0  0  0  0  0  0  0  0  0
    2.5981   -0.5000    0.0000 H   0  0  0  0  0  0  0  0  0  0  0  0
    0.8660   -1.5000    0.0000 H   0  0  0  0  0  0  0  0  0  0  0  0
   -0.8660    2.5000    0.0000 N   0  0  0  0  0  0  0  0  0  0  0  0
    0.0000    3.0000    0.0000 O   0  0  0  0  0  0  0  0  0  0  0  0
   -1.7321    3.0000    0.0000 O   0  0  0  0  0  0  0  0  0  0  0  0
   -2.5981   -0.5000    0.0000 O   0  0  0  0  0  0  0  0  0  0  0  0
   -3.4641   -0.0000    0.0000 C   0  0  0  0  0  0  0  0  0  0  0  0
   -4.4641   -0.0000    0.0000 H   0  0  0  0  0  0  0  0  0  0  0  0
   -3.9641   -0.8660    0.0000 H   0  0  0  0  0  0  0  0  0  0  0  0
   -3.4641    1.0000    0.0000 H   0  0  0  0  0  0  0  0  0  0  0  0
  1  2  2  0  0  0  0
  1  7  1  0  0  0  0
  2  3  1  0  0  0  0
  2 16  1  0  0  0  0
  3  4  2  0  0  0  0
  3  9  1  0  0  0  0
  4  5  1  0  0  0  0
  5  6  2  0  0  0  0
  5  8  1  0  0  0  0
  6  1  1  0  0  0  0
  6 19  1  0  0  0  0
  9 10  2  0  0  0  0
 10 11  1  0  0  0  0
 10 13  1  0  0  0  0
 11 12  2  0  0  0  0
 11 14  1  0  0  0  0
 12  4  1  0  0  0  0
 12 15  1  0  0  0  0
 16 17  2  0  0  0  0
 16 18  2  0  0  0  0
 19 20  1  0  0  0  0
 20 21  1  0  0  0  0
 20 22  1  0  0  0  0
 20 23  1  0  0  0  0
M  END
>  <activity>
Inactive

$$$$
mutag_d4
 OpenBabel01191712022D

 28 31  0  0  0  0  0  0  0  0999 V2000
   -0.0006   -2.8334    0.0000 C   0  0  0  0  0  0  0  0  0  0  0  0
   -0.8186   -2.3611    0.0000 C   0  0  0  0  0  0  0  0  0  0  0  0
   -0.8185   -1.4168    0.0000 C   0  0  0  0  0  0  0  0  0  0  0  0
   -0.0002   -0.9448    0.0000 C   0  0  0  0  0  0  0  0  0  0  0  0
    0.8174   -1.4171    0.0000 C   0  0  0  0  0  0  0  0  0  0  0  0
    0.8172   -2.3614    0.0000 C   0  0  0  0  0  0  0  0  0  0  0  0
   -1.6361   -0.9445    0.0000 C   0  0  0  0  0  0  0  0  0  0  0  0
   -1.6359    0.0003    0.0000 C   0  0  0  0  0  0  0  0  0  0  0  0
   -0.8181    0.4723    0.0000 C   0  0  0  0  0  0  0  0  0  0  0  0
   -0.0000   -0.0000    0.0000 C   0  0  0  0  0  0  0  0  0  0  0  0
    2.4538   -1.4175    0.0000 C   0  0  0  0  0  0  0  0  0  0  0  0
    1.6357   -0.9451    0.0000 C   0  0  0  0  0  0  0  0  0  0  0  0
    1.6359   -0.0003    0.0000 C   0  0  0  0  0  0  0  0  0  0  0  0
    2.4541    0.4717    0.0000 C   0  0  0  0  0  0  0  0  0  0  0  0
    3.2717   -0.0007    0.0000 C   0  0  0  0  0  0  0  0  0  0  0  0
    3.2715   -0.9455    0.0000 C   0  0  0  0  0  0  0  0  0  0  0  0
   -0.8179    1.4165    0.0000 N   0  0  0  0  0  0  0  0  0  0  0  0
   -0.0298    1.9365    0.0000 O   0  0  0  0  0  0  0  0  0  0  0  0
   -1.6623    1.8391    0.0000 O   0  0  0  0  0  0  0  0  0  0  0  0
   -0.0006   -3.8093    0.0000 H   0  0  0  0  0  0  0  0  0  0  0  0
   -1.6638   -2.8490    0.0000 H   0  0  0  0  0  0  0  0  0  0  0  0
    1.6623   -2.8495    0.0000 H   0  0  0  0  0  0  0  0  0  0  0  0
   -2.4813   -1.4322    0.0000 H   0  0  0  0  0  0  0  0  0  0  0  0
   -2.4809    0.4884    0.0000 H   0  0  0  0  0  0  0  0  0  0  0  0
    2.4537   -2.3933    0.0000 H   0  0  0  0  0  0  0  0  0  0  0  0
    2.4542    1.4476    0.0000 H   0  0  0  0  0  0  0  0  0  0  0  0
    4.1170    0.4871    0.0000 H   0  0  0  0  0  0  0  0  0  0  0  0
    4.1166   -1.4335    0.0000 H   0  0  0  0  0  0  0  0  0  0  0  0
  1  2  2  0  0  0  0
  1 20  1  0  0  0  0
  2  3  1  0  0  0  0
  2 21  1  0  0  0  0
  3  4  2  0  0  0  0
  3  7  1  0  0  0  0
  4  5  1  0  0  0  0
  5  6  2  0  0  0  0
  6  1  1  0  0  0  0
  6 22  1  0  0  0  0
  7  8  2  0  0  0  0
  7 23  1  0  0  0  0
  8  9  1  0  0  0  0
  8 24  1  0  0  0  0
  9 10  2  0  0  0  0
 10  4  1  0  0  0  0
 11 12  2  0  0  0  0
 11 25  1  0  0  0  0
 12 13  1  0  0  0  0
 12  5  1  0  0  0  0
 13 14  2  0  0  0  0
 13 10  1  0  0  0  0
 14 15  1  0  0  0  0
 14 26  1  0  0  0  0
 15 16  2  0  0  0  0
 15 27  1  0  0  0  0
 16 11  1  0  0  0  0
 16 28  1  0  0  0  0
 17  9  1  0  0  0  0
 17 18  2  0  0  0  0
 17 19  2  0  0  0  0
M  END
>  <activity>
Active

$$$$
mutag_d40
 OpenBabel01191712022D

 20 21  0  0  0  0  0  0  0  0999 V2000
    1.7321   -1.0000    0.0000 C   0  0  0  0  0  0  0  0  0  0  0  0
    0.8660   -1.5000    0.0000 C   0  0  0  0  0  0  0  0  0  0  0  0
   -0.0000   -1.0000    0.0000 C   0  0  0  0  0  0  0  0  0  0  0  0
    0.0000   -0.0000    0.0000 C   0  0  0  0  0  0  0  0  0  0  0  0
    0.8660    0.5000    0.0000 C   0  0  0  0  0  0  0  0  0  0  0  0
    1.7321   -0.0000    0.0000 C   0  0  0  0  0  0  0  0  0  0  0  0
    2.5981   -1.5000    0.0000 H   0  0  0  0  0  0  0  0  0  0  0  0
    0.8660   -2.5000    0.0000 H   0  0  0  0  0  0  0  0  0  0  0  0
    0.8660    1.5000    0.0000 H   0  0  0  0  0  0  0  0  0  0  0  0
    2.5981    0.5000    0.0000 H   0  0  0  0  0  0  0  0  0  0  0  0
   -0.8660   -1.5000    0.0000 C   0  0  0  0  0  0  0  0  0  0  0  0
   -1.7321   -1.0000    0.0000 C   0  0  0  0  0  0  0  0  0  0  0  0
   -1.7321    0.0000    0.0000 C   0  0  0  0  0  0  0  0  0  0  0  0
   -0.8660    0.5000    0.0000 C   0  0  0  0  0  0  0  0  0  0  0  0
   -0.8660   -2.5000    0.0000 H   0  0  0  0  0  0  0  0  0  0  0  0
   -2.5981   -1.5000    0.0000 H   0  0  0  0  0  0  0  0  0  0  0  0
   -2.5981    0.5000    0.0000 H   0  0  0  0  0  0  0  0  0  0  0  0
   -0.8660    1.5000    0.0000 N   0  0  0  0  0  0  0  0  0  0  0  0
    0.0000    2.0000    0.0000 O   0  0  0  0  0  0  0  0  0  0  0  0
   -1.7321    2.0000    0.0000 O   0  0  0  0  0  0  0  0  0  0  0  0
  1  2  2  0  0  0  0
  1  7  1  0  0  0  0
  2  3  1  0  0  0  0
  2  8  1  0  0  0  0
  3  4  2  0  0  0  0
  3 11  1  0  0  0  0
  4  5  1  0  0  0  0
  5  6  2  0  0  0  0
  5  9  1  0  0  0  0
  6  1  1  0  0  0  0
  6 10  1  0  0  0  0
 11 12  2  0  0  0  0
 11 15  1  0  0  0  0
 12 13  1  0  0  0  0
 12 16  1  0  0  0  0
 13 14  2  0  0  0  0
 13 17  1  0  0  0  0
 14  4  1  0  0  0  0
 18 14  1  0  0  0  0
 18 20  2  0  0  0  0
 19 18  2  0  0  0  0
M  END
>  <activity>
Inactive

$$$$
mutag_d41
 OpenBabel01191712022D

 25 27  0  0  0  0  0  0  0  0999 V2000
   -2.4898   -0.4786    0.0000 C   0  0  0  0  0  0  0  0  0  0  0  0
   -1.6600    0.0003    0.0000 C   0  0  0  0  0  0  0  0  0  0  0  0
   -0.8298   -0.4790    0.0000 C   0  0  0  0  0  0  0  0  0  0  0  0
   -0.8300   -1.4377    0.0000 C   0  0  0  0  0  0  0  0  0  0  0  0
   -1.6604   -1.9166    0.0000 C   0  0  0  0  0  0  0  0  0  0  0  0
   -2.4900   -1.4374    0.0000 C   0  0  0  0  0  0  0  0  0  0  0  0
   -1.6598    1.0056    0.0000 H   0  0  0  0  0  0  0  0  0  0  0  0
   -1.6606   -2.9219    0.0000 H   0  0  0  0  0  0  0  0  0  0  0  0
   -3.3607   -1.9398    0.0000 H   0  0  0  0  0  0  0  0  0  0  0  0
    0.8301   -0.4793    0.0000 C   0  0  0  0  0  0  0  0  0  0  0  0
    1.6605   -0.0003    0.0000 C   0  0  0  0  0  0  0  0  0  0  0  0
    2.4901   -0.4796    0.0000 C   0  0  0  0  0  0  0  0  0  0  0  0
    2.4899   -1.4384    0.0000 C   0  0  0  0  0  0  0  0  0  0  0  0
    1.6601   -1.9173    0.0000 C   0  0  0  0  0  0  0  0  0  0  0  0
    0.8300   -1.4380    0.0000 C   0  0  0  0  0  0  0  0  0  0  0  0
    1.6608    1.0049    0.0000 H   0  0  0  0  0  0  0  0  0  0  0  0
    3.3604   -1.9411    0.0000 H   0  0  0  0  0  0  0  0  0  0  0  0
    1.6600   -2.9225    0.0000 H   0  0  0  0  0  0  0  0  0  0  0  0
    0.0000   -0.0000    0.0000 C   0  0  0  0  0  0  0  0  0  0  0  0
    0.0001    1.0052    0.0000 H   0  0  0  0  0  0  0  0  0  0  0  0
   -0.8706    0.5026    0.0000 H   0  0  0  0  0  0  0  0  0  0  0  0
    3.3608    0.0228    0.0000 Br  0  0  0  0  0  0  0  0  0  0  0  0
   -3.3195    0.0006    0.0000 N   0  0  0  0  0  0  0  0  0  0  0  0
   -3.4195    0.9535    0.0000 O   0  0  0  0  0  0  0  0  0  0  0  0
   -4.0948   -0.5625    0.0000 O   0  0  0  0  0  0  0  0  0  0  0  0
  1  2  2  0  0  0  0
  1 23  1  0  0  0  0
  2  3  1  0  0  0  0
  2  7  1  0  0  0  0
  3  4  2  0  0  0  0
  3 19  1  0  0  0  0
  4  5  1  0  0  0  0
  4 15  1  0  0  0  0
  5  6  2  0  0  0  0
  5  8  1  0  0  0  0
  6  1  1  0  0  0  0
  6  9  1  0  0  0  0
 10 11  2  0  0  0  0
 10 19  1  0  0  0  0
 11 12  1  0  0  0  0
 11 16  1  0  0  0  0
 12 13  2  0  0  0  0
 12 22  1  0  0  0  0
 13 14  1  0  0  0  0
 13 17  1  0  0  0  0
 14 15  2  0  0  0  0
 14 18  1  0  0  0  0
 15 10  1  0  0  0  0
 19 20  1  0  0  0  0
 19 21  1  0  0  0  0
 23 25  2  0  0  0  0
 24 23  2  0  0  0  0
M  END
>  <activity>
Active

$$$$
mutag_d42
 OpenBabel01191712022D

 28 29  0  0  0  0  0  0  0  0999 V2000
   -3.2709   -0.5000    0.0000 C   0  0  0  0  0  0  0  0  0  0  0  0
   -2.4049   -1.0000    0.0000 C   0  0  0  0  0  0  0  0  0  0  0  0
   -1.5388   -0.5000    0.0000 C   0  0  3  0  0  0  0  0  0  0  0  0
   -1.5388    0.5000    0.0000 C   0  0  3  0  0  0  0  0  0  0  0  0
   -2.4049    1.0000    0.0000 C   0  0  0  0  0  0  0  0  0  0  0  0
   -3.2709    0.5000    0.0000 C   0  0  3  0  0  0  0  0  0  0  0  0
   -0.5878   -0.8090    0.0000 N   0  0  0  0  0  0  0  0  0  0  0  0
    0.0000    0.0000    0.0000 N   0  0  0  0  0  0  0  0  0  0  0  0
   -0.5878    0.8090    0.0000 C   0  0  0  0  0  0  0  0  0  0  0  0
    1.0000   -0.0000    0.0000 C   0  0  0  0  0  0  0  0  0  0  0  0
   -4.1369    1.0000    0.0000 N   0  0  0  0  0  0  0  0  0  0  0  0
   -4.1369    2.0000    0.0000 O   0  0  0  0  0  0  0  0  0  0  0  0
   -5.0029    0.5000    0.0000 O   0  0  0  0  0  0  0  0  0  0  0  0
   -4.1369   -1.0000    0.0000 H   0  0  0  0  0  0  0  0  0  0  0  0
   -2.4049   -2.0000    0.0000 H   0  0  0  0  0  0  0  0  0  0  0  0
   -2.4049    2.0000    0.0000 H   0  0  0  0  0  0  0  0  0  0  0  0
   -0.2788    1.7601    0.0000 H   0  0  0  0  0  0  0  0  0  0  0  0
    1.8660    0.5000    0.0000 H   0  0  0  0  0  0  0  0  0  0  0  0
    1.0000    1.0000    0.0000 H   0  0  0  0  0  0  0  0  0  0  0  0
    1.5000   -0.8660    0.0000 H   0  0  0  0  0  0  0  0  0  0  0  0
   -0.2788   -1.7601    0.0000 H   0  0  0  0  0  0  0  0  0  0  0  0
   -4.1975    0.0350    0.0000 H   0  0  0  0  0  0  0  0  0  0  0  0
   -1.4782   -1.5350    0.0000 H   0  0  0  0  0  0  0  0  0  0  0  0
   -2.4655    0.0350    0.0000 H   0  0  0  0  0  0  0  0  0  0  0  0
   -2.4655   -0.0350    0.0000 H   0  0  0  0  0  0  0  0  0  0  0  0
   -3.3315    1.5350    0.0000 H   0  0  0  0  0  0  0  0  0  0  0  0
   -2.3442   -0.0350    0.0000 H   0  0  0  0  0  0  0  0  0  0  0  0
    0.4690    0.9764    0.0000 H   0  0  0  0  0  0  0  0  0  0  0  0
  1  2  1  0  0  0  0
  1 14  1  0  0  0  0
  1 22  1  0  0  0  0
  2  3  1  0  0  0  0
  2 15  1  0  0  0  0
  2 23  1  0  0  0  0
  3  4  1  0  0  0  0
  3  7  1  0  0  0  0
  3 24  1  0  0  0  0
  4  5  1  0  0  0  0
  4  9  1  0  0  0  0
  4 25  1  0  0  0  0
  5  6  1  0  0  0  0
  5 16  1  0  0  0  0
  5 26  1  0  0  0  0
  6  1  1  0  0  0  0
  6 11  1  0  0  0  0
  6 27  1  0  0  0  0
  7  8  1  0  0  0  0
  7 21  1  0  0  0  0
  8 10  1  0  0  0  0
  9  8  1  0  0  0  0
  9 17  1  0  0  0  0
  9 28  1  0  0  0  0
 10 18  1  0  0  0  0
 10 19  1  0  0  0  0
 10 20  1  0  0  0  0
 11 13  2  0  0  0  0
 12 11  2  0  0  0  0
M  END
>  <activity>
Inactive

$$$$
mutag_d43
 OpenBabel01191712022D

 28 31  0  0  0  0  0  0  0  0999 V2000
    0.0006    2.8296    0.0000 C   0  0  0  0  0  0  0  0  0  0  0  0
    0.8175    2.3579    0.0000 C   0  0  0  0  0  0  0  0  0  0  0  0
    0.8173    1.4149    0.0000 C   0  0  0  0  0  0  0  0  0  0  0  0
    0.0002    0.9435    0.0000 C   0  0  0  0  0  0  0  0  0  0  0  0
   -0.8163    1.4152    0.0000 C   0  0  0  0  0  0  0  0  0  0  0  0
   -0.8161    2.3582    0.0000 C   0  0  0  0  0  0  0  0  0  0  0  0
    0.0008    3.8091    0.0000 H   0  0  0  0  0  0  0  0  0  0  0  0
    1.6659    2.8476    0.0000 H   0  0  0  0  0  0  0  0  0  0  0  0
   -1.6643    2.8481    0.0000 H   0  0  0  0  0  0  0  0  0  0  0  0
    1.6338    0.9432    0.0000 C   0  0  0  0  0  0  0  0  0  0  0  0
    1.6336   -0.0003    0.0000 C   0  0  0  0  0  0  0  0  0  0  0  0
    0.8170   -0.4717    0.0000 C   0  0  0  0  0  0  0  0  0  0  0  0
    0.0000    0.0000    0.0000 C   0  0  0  0  0  0  0  0  0  0  0  0
    2.4822    1.4328    0.0000 H   0  0  0  0  0  0  0  0  0  0  0  0
    0.8169   -1.4512    0.0000 H   0  0  0  0  0  0  0  0  0  0  0  0
   -1.6334    0.9438    0.0000 C   0  0  0  0  0  0  0  0  0  0  0  0
   -1.6336    0.0003    0.0000 C   0  0  0  0  0  0  0  0  0  0  0  0
   -2.4508   -0.4710    0.0000 C   0  0  0  0  0  0  0  0  0  0  0  0
   -3.2673    0.0007    0.0000 C   0  0  0  0  0  0  0  0  0  0  0  0
   -3.2671    0.9442    0.0000 C   0  0  0  0  0  0  0  0  0  0  0  0
   -2.4504    1.4155    0.0000 C   0  0  0  0  0  0  0  0  0  0  0  0
   -4.1157   -0.4889    0.0000 H   0  0  0  0  0  0  0  0  0  0  0  0
   -4.1153    1.4341    0.0000 H   0  0  0  0  0  0  0  0  0  0  0  0
   -2.4503    2.3951    0.0000 H   0  0  0  0  0  0  0  0  0  0  0  0
    2.4502   -0.4719    0.0000 N   0  0  0  0  0  0  0  0  0  0  0  0
    2.6460   -1.3943    0.0000 O   0  0  0  0  0  0  0  0  0  0  0  0
    3.1510    0.1589    0.0000 O   0  0  0  0  0  0  0  0  0  0  0  0
   -2.4510   -1.4469    0.0000 H   0  0  0  0  0  0  0  0  0  0  0  0
  1  2  2  0  0  0  0
  1  7  1  0  0  0  0
  2  3  1  0  0  0  0
  2  8  1  0  0  0  0
  3  4  2  0  0  0  0
  3 10  1  0  0  0  0
  4  5  1  0  0  0  0
  5  6  2  0  0  0  0
  6  1  1  0  0  0  0
  6  9  1  0  0  0  0
 10 11  2  0  0  0  0
 10 14  1  0  0  0  0
 11 12  1  0  0  0  0
 11 25  1  0  0  0  0
 12 13  2  0  0  0  0
 12 15  1  0  0  0  0
 13  4  1  0  0  0  0
 16 17  2  0  0  0  0
 16  5  1  0  0  0  0
 17 18  1  0  0  0  0
 17 13  1  0  0  0  0
 18 19  2  0  0  0  0
 18 28  1  0  0  0  0
 19 20  1  0  0  0  0
 19 22  1  0  0  0  0
 20 21  2  0  0  0  0
 20 23  1  0  0  0  0
 21 16  1  0  0  0  0
 21 24  1  0  0  0  0
 25 27  2  0  0  0  0
 26 25  2  0  0  0  0
M  END
>  <activity>
Active

$$$$
mutag_d44
 OpenBabel01191712022D

 28 30  0  0  0  0  0  0  0  0999 V2000
    3.4641    1.0000    0.0000 C   0  0  0  0  0  0  0  0  0  0  0  0
    3.4641   -0.0000    0.0000 C   0  0  0  0  0  0  0  0  0  0  0  0
    2.5981   -0.5000    0.0000 C   0  0  0  0  0  0  0  0  0  0  0  0
    1.7321    0.0000    0.0000 C   0  0  0  0  0  0  0  0  0  0  0  0
    1.7321    1.0000    0.0000 C   0  0  0  0  0  0  0  0  0  0  0  0
    2.5981    1.5000    0.0000 C   0  0  0  0  0  0  0  0  0  0  0  0
    0.8660   -0.5000    0.0000 C   0  0  0  0  0  0  0  0  0  0  0  0
    0.0000   -0.0000    0.0000 C   0  0  0  0  0  0  0  0  0  0  0  0
    0.0000    1.0000    0.0000 C   0  0  0  0  0  0  0  0  0  0  0  0
    0.8660    1.5000    0.0000 C   0  0  0  0  0  0  0  0  0  0  0  0
    0.8660   -1.5000    0.0000 C   0  0  0  0  0  0  0  0  0  0  0  0
   -0.0000   -2.0000    0.0000 C   0  0  0  0  0  0  0  0  0  0  0  0
   -0.8660   -1.5000    0.0000 C   0  0  0  0  0  0  0  0  0  0  0  0
   -0.8660   -0.5000    0.0000 C   0  0  0  0  0  0  0  0  0  0  0  0
   -1.7321   -2.0000    0.0000 N   0  0  0  0  0  0  0  0  0  0  0  0
   -2.5981   -1.5000    0.0000 O   0  0  0  0  0  0  0  0  0  0  0  0
   -1.7321   -3.0000    0.0000 O   0  0  0  0  0  0  0  0  0  0  0  0
    4.3301    1.5000    0.0000 H   0  0  0  0  0  0  0  0  0  0  0  0
    4.3301   -0.5000    0.0000 H   0  0  0  0  0  0  0  0  0  0  0  0
    2.5981   -1.5000    0.0000 H   0  0  0  0  0  0  0  0  0  0  0  0
    2.5981    2.5000    0.0000 H   0  0  0  0  0  0  0  0  0  0  0  0
    1.7321   -2.0000    0.0000 H   0  0  0  0  0  0  0  0  0  0  0  0
   -0.0000   -3.0000    0.0000 H   0  0  0  0  0  0  0  0  0  0  0  0
   -1.7321    0.0000    0.0000 H   0  0  0  0  0  0  0  0  0  0  0  0
   -0.5000    1.8660    0.0000 H   0  0  0  0  0  0  0  0  0  0  0  0
   -1.0000    1.0000    0.0000 H   0  0  0  0  0  0  0  0  0  0  0  0
    1.3660    2.3660    0.0000 H   0  0  0  0  0  0  0  0  0  0  0  0
    0.3660    2.3660    0.0000 H   0  0  0  0  0  0  0  0  0  0  0  0
  1  2  2  0  0  0  0
  1 18  1  0  0  0  0
  2  3  1  0  0  0  0
  2 19  1  0  0  0  0
  3  4  2  0  0  0  0
  3 20  1  0  0  0  0
  4  5  1  0  0  0  0
  4  7  1  0  0  0  0
  5  6  2  0  0  0  0
  6  1  1  0  0  0  0
  6 21  1  0  0  0  0
  7  8  2  0  0  0  0
  7 11  1  0  0  0  0
  8  9  1  0  0  0  0
  9 10  1  0  0  0  0
  9 25  1  0  0  0  0
  9 26  1  0  0  0  0
 10  5  1  0  0  0  0
 10 27  1  0  0  0  0
 10 28  1  0  0  0  0
 11 12  2  0  0  0  0
 11 22  1  0  0  0  0
 12 13  1  0  0  0  0
 12 23  1  0  0  0  0
 13 14  2  0  0  0  0
 13 15  1  0  0  0  0
 14  8  1  0  0  0  0
 14 24  1  0  0  0  0
 15 17  2  0  0  0  0
 16 15  2  0  0  0  0
M  END
>  <activity>
Active

$$$$
mutag_d45
 OpenBabel01191712022D

 16 16  0  0  0  0  0  0  0  0999 V2000
   -0.0000   -0.0000    0.0000 C   0  0  0  0  0  0  0  0  0  0  0  0
   -0.8660    0.5000    0.0000 C   0  0  0  0  0  0  0  0  0  0  0  0
   -0.8660    1.5000    0.0000 C   0  0  0  0  0  0  0  0  0  0  0  0
   -0.0000    2.0000    0.0000 C   0  0  0  0  0  0  0  0  0  0  0  0
    0.8660    1.5000    0.0000 C   0  0  0  0  0  0  0  0  0  0  0  0
    0.8660    0.5000    0.0000 C   0  0  0  0  0  0  0  0  0  0  0  0
   -0.0000   -1.0000    0.0000 H   0  0  0  0  0  0  0  0  0  0  0  0
   -1.7321    2.0000    0.0000 H   0  0  0  0  0  0  0  0  0  0  0  0
    0.0000    3.0000    0.0000 H   0  0  0  0  0  0  0  0  0  0  0  0
    1.7321    0.0000    0.0000 H   0  0  0  0  0  0  0  0  0  0  0  0
    1.7321    2.0000    0.0000 N   0  0  0  0  0  0  0  0  0  0  0  0
   -1.7321   -0.0000    0.0000 N   0  0  0  0  0  0  0  0  0  0  0  0
    2.5981    1.5000    0.0000 O   0  0  0  0  0  0  0  0  0  0  0  0
    1.7321    3.0000    0.0000 O   0  0  0  0  0  0  0  0  0  0  0  0
   -2.5981    0.5000    0.0000 O   0  0  0  0  0  0  0  0  0  0  0  0
   -1.7321   -1.0000    0.0000 O   0  0  0  0  0  0  0  0  0  0  0  0
  1  2  2  0  0  0  0
  1  7  1  0  0  0  0
  2  3  1  0  0  0  0
  2 12  1  0  0  0  0
  3  4  2  0  0  0  0
  3  8  1  0  0  0  0
  4  5  1  0  0  0  0
  4  9  1  0  0  0  0
  5  6  2  0  0  0  0
  6  1  1  0  0  0  0
  6 10  1  0  0  0  0
 11  5  1  0  0  0  0
 11 14  2  0  0  0  0
 12 15  2  0  0  0  0
 12 16  2  0  0  0  0
 13 11  2  0  0  0  0
M  END
>  <activity>
Active

$$$$
mutag_d46
 OpenBabel01191712022D

 38 42  0  0  0  0  0  0  0  0999 V2000
    4.1280   -2.3771    0.0000 C   0  0  0  0  0  0  0  0  0  0  0  0
    3.3036   -2.8561    0.0000 C   0  0  0  0  0  0  0  0  0  0  0  0
    2.4767   -2.3817    0.0000 C   0  0  0  0  0  0  0  0  0  0  0  0
    2.4740   -1.4284    0.0000 C   0  0  0  0  0  0  0  0  0  0  0  0
    3.2983   -0.9494    0.0000 C   0  0  0  0  0  0  0  0  0  0  0  0
    4.1253   -1.4238    0.0000 C   0  0  0  0  0  0  0  0  0  0  0  0
    1.6469   -2.8611    0.0000 C   0  0  0  0  0  0  0  0  0  0  0  0
    0.8222   -2.3849    0.0000 C   0  0  0  0  0  0  0  0  0  0  0  0
    0.8273   -1.4295    0.0000 C   0  0  0  0  0  0  0  0  0  0  0  0
    1.6494   -0.9523    0.0000 C   0  0  0  0  0  0  0  0  0  0  0  0
    0.0030   -2.8572    0.0000 C   0  0  0  0  0  0  0  0  0  0  0  0
   -0.8171   -2.3837    0.0000 C   0  0  0  0  0  0  0  0  0  0  0  0
   -0.8272   -1.4327    0.0000 C   0  0  0  0  0  0  0  0  0  0  0  0
    0.0072   -0.9560    0.0000 C   0  0  0  0  0  0  0  0  0  0  0  0
    0.0000   -0.0000    0.0000 C   0  0  0  0  0  0  0  0  0  0  0  0
    0.8286    0.4668    0.0000 C   0  0  0  0  0  0  0  0  0  0  0  0
    1.6488   -0.0067    0.0000 C   0  0  0  0  0  0  0  0  0  0  0  0
   -1.6518   -0.9566    0.0000 C   0  0  0  0  0  0  0  0  0  0  0  0
   -1.6479   -0.0136    0.0000 C   0  0  0  0  0  0  0  0  0  0  0  0
   -0.8247    0.4761    0.0000 C   0  0  0  0  0  0  0  0  0  0  0  0
   -0.8309    1.4284    0.0000 N   0  0  0  0  0  0  0  0  0  0  0  0
   -0.3445    2.2470    0.0000 O   0  0  0  0  0  0  0  0  0  0  0  0
   -1.7831    1.4402    0.0000 O   0  0  0  0  0  0  0  0  0  0  0  0
    1.6531   -3.8129    0.0000 H   0  0  0  0  0  0  0  0  0  0  0  0
    0.0093   -3.8090    0.0000 H   0  0  0  0  0  0  0  0  0  0  0  0
   -1.6389   -2.8640    0.0000 H   0  0  0  0  0  0  0  0  0  0  0  0
    0.8337    1.4186    0.0000 H   0  0  0  0  0  0  0  0  0  0  0  0
    2.4730    0.4695    0.0000 H   0  0  0  0  0  0  0  0  0  0  0  0
   -2.4760   -1.4327    0.0000 H   0  0  0  0  0  0  0  0  0  0  0  0
   -2.4743    0.4587    0.0000 H   0  0  0  0  0  0  0  0  0  0  0  0
    3.7718   -0.1240    0.0000 H   0  0  0  0  0  0  0  0  0  0  0  0
    2.8203   -0.1267    0.0000 H   0  0  0  0  0  0  0  0  0  0  0  0
    4.6060   -3.1998    0.0000 H   0  0  0  0  0  0  0  0  0  0  0  0
    5.0795   -2.3745    0.0000 H   0  0  0  0  0  0  0  0  0  0  0  0
    5.0768   -1.4211    0.0000 H   0  0  0  0  0  0  0  0  0  0  0  0
    4.5988   -0.5984    0.0000 H   0  0  0  0  0  0  0  0  0  0  0  0
    2.8302   -3.6815    0.0000 H   0  0  0  0  0  0  0  0  0  0  0  0
    3.7817   -3.6788    0.0000 H   0  0  0  0  0  0  0  0  0  0  0  0
  1  2  1  0  0  0  0
  1 33  1  0  0  0  0
  1 34  1  0  0  0  0
  2  3  1  0  0  0  0
  2 37  1  0  0  0  0
  2 38  1  0  0  0  0
  3  4  2  0  0  0  0
  3  7  1  0  0  0  0
  4  5  1  0  0  0  0
  5  6  1  0  0  0  0
  5 31  1  0  0  0  0
  5 32  1  0  0  0  0
  6  1  1  0  0  0  0
  6 35  1  0  0  0  0
  6 36  1  0  0  0  0
  7  8  2  0  0  0  0
  7 24  1  0  0  0  0
  8  9  1  0  0  0  0
  8 11  1  0  0  0  0
  9 10  2  0  0  0  0
 10  4  1  0  0  0  0
 11 12  2  0  0  0  0
 11 25  1  0  0  0  0
 12 13  1  0  0  0  0
 12 26  1  0  0  0  0
 13 14  2  0  0  0  0
 13 18  1  0  0  0  0
 14  9  1  0  0  0  0
 14 15  1  0  0  0  0
 15 16  1  0  0  0  0
 16 17  2  0  0  0  0
 16 27  1  0  0  0  0
 17 10  1  0  0  0  0
 17 28  1  0  0  0  0
 18 19  2  0  0  0  0
 18 29  1  0  0  0  0
 19 20  1  0  0  0  0
 19 30  1  0  0  0  0
 20 15  2  0  0  0  0
 21 20  1  0  0  0  0
 21 22  2  0  0  0  0
 23 21  2  0  0  0  0
M  END
>  <activity>
Active

$$$$
mutag_d47
 OpenBabel01191712022D

 34 37  0  0  0  0  0  0  0  0999 V2000
    2.5981   -2.5000    0.0000 C   0  0  0  0  0  0  0  0  0  0  0  0
    1.7321   -3.0000    0.0000 C   0  0  0  0  0  0  0  0  0  0  0  0
    0.8660   -2.5000    0.0000 C   0  0  0  0  0  0  0  0  0  0  0  0
    0.8660   -1.5000    0.0000 C   0  0  0  0  0  0  0  0  0  0  0  0
    1.7321   -1.0000    0.0000 C   0  0  0  0  0  0  0  0  0  0  0  0
    2.5981   -1.5000    0.0000 C   0  0  0  0  0  0  0  0  0  0  0  0
    0.1294   -2.7272    0.0000 C   0  0  0  0  0  0  0  0  0  0  0  0
   -0.5075   -2.2930    0.0000 C   0  0  0  0  0  0  0  0  0  0  0  0
   -0.5651   -1.5243    0.0000 C   0  0  0  0  0  0  0  0  0  0  0  0
   -0.0000   -1.0000    0.0000 C   0  0  0  0  0  0  0  0  0  0  0  0
    0.0000   -0.0000    0.0000 C   0  0  0  0  0  0  0  0  0  0  0  0
    0.8660    0.5000    0.0000 C   0  0  0  0  0  0  0  0  0  0  0  0
    1.7321    0.0000    0.0000 C   0  0  0  0  0  0  0  0  0  0  0  0
   -1.1705   -1.1282    0.0000 C   0  0  0  0  0  0  0  0  0  0  0  0
   -1.2382   -0.4079    0.0000 C   0  0  0  0  0  0  0  0  0  0  0  0
   -0.7173    0.0942    0.0000 C   0  0  0  0  0  0  0  0  0  0  0  0
   -2.1759   -0.0603    0.0000 N   0  0  0  0  0  0  0  0  0  0  0  0
    3.4641   -3.0000    0.0000 N   0  0  0  0  0  0  0  0  0  0  0  0
   -2.3437    0.9255    0.0000 O   0  0  0  0  0  0  0  0  0  0  0  0
   -2.9457   -0.6985    0.0000 O   0  0  0  0  0  0  0  0  0  0  0  0
    3.4641   -4.0000    0.0000 O   0  0  0  0  0  0  0  0  0  0  0  0
    4.3301   -2.5000    0.0000 O   0  0  0  0  0  0  0  0  0  0  0  0
    1.7321   -4.0000    0.0000 H   0  0  0  0  0  0  0  0  0  0  0  0
    3.4641   -1.0000    0.0000 H   0  0  0  0  0  0  0  0  0  0  0  0
   -0.4941   -3.5090    0.0000 H   0  0  0  0  0  0  0  0  0  0  0  0
    0.4948   -3.6581    0.0000 H   0  0  0  0  0  0  0  0  0  0  0  0
   -1.5075   -2.2930    0.0000 H   0  0  0  0  0  0  0  0  0  0  0  0
   -1.0075   -3.1590    0.0000 H   0  0  0  0  0  0  0  0  0  0  0  0
   -2.0268   -1.6445    0.0000 H   0  0  0  0  0  0  0  0  0  0  0  0
   -1.0302    1.0440    0.0000 H   0  0  0  0  0  0  0  0  0  0  0  0
    1.3660    1.3660    0.0000 H   0  0  0  0  0  0  0  0  0  0  0  0
    0.3660    1.3660    0.0000 H   0  0  0  0  0  0  0  0  0  0  0  0
    2.5254   -0.6088    0.0000 H   0  0  0  0  0  0  0  0  0  0  0  0
    1.9909    0.9659    0.0000 H   0  0  0  0  0  0  0  0  0  0  0  0
  1  2  2  0  0  0  0
  1 18  1  0  0  0  0
  2  3  1  0  0  0  0
  2 23  1  0  0  0  0
  3  4  2  0  0  0  0
  3  7  1  0  0  0  0
  4  5  1  0  0  0  0
  5  6  2  0  0  0  0
  6  1  1  0  0  0  0
  6 24  1  0  0  0  0
  7  8  1  0  0  0  0
  7 25  1  0  0  0  0
  7 26  1  0  0  0  0
  8  9  1  0  0  0  0
  8 27  1  0  0  0  0
  8 28  1  0  0  0  0
  9 10  2  0  0  0  0
  9 14  1  0  0  0  0
 10  4  1  0  0  0  0
 10 11  1  0  0  0  0
 11 12  1  0  0  0  0
 12 13  1  0  0  0  0
 12 31  1  0  0  0  0
 12 32  1  0  0  0  0
 13  5  1  0  0  0  0
 13 33  1  0  0  0  0
 13 34  1  0  0  0  0
 14 15  2  0  0  0  0
 14 29  1  0  0  0  0
 15 16  1  0  0  0  0
 15 17  1  0  0  0  0
 16 11  2  0  0  0  0
 16 30  1  0  0  0  0
 17 20  2  0  0  0  0
 18 22  2  0  0  0  0
 19 17  2  0  0  0  0
 21 18  2  0  0  0  0
M  END
>  <activity>
Active

$$$$
mutag_d48
 OpenBabel01191712022D

 26 28  0  0  0  0  0  0  0  0999 V2000
   -3.4641    1.0000    0.0000 C   0  0  0  0  0  0  0  0  0  0  0  0
   -2.5981    1.5000    0.0000 C   0  0  0  0  0  0  0  0  0  0  0  0
   -1.7321    1.0000    0.0000 C   0  0  0  0  0  0  0  0  0  0  0  0
   -1.7321   -0.0000    0.0000 C   0  0  0  0  0  0  0  0  0  0  0  0
   -2.5981   -0.5000    0.0000 C   0  0  0  0  0  0  0  0  0  0  0  0
   -3.4641   -0.0000    0.0000 C   0  0  0  0  0  0  0  0  0  0  0  0
   -4.3301    1.5000    0.0000 H   0  0  0  0  0  0  0  0  0  0  0  0
   -2.5981    2.5000    0.0000 H   0  0  0  0  0  0  0  0  0  0  0  0
   -2.5981   -1.5000    0.0000 H   0  0  0  0  0  0  0  0  0  0  0  0
   -4.3301   -0.5000    0.0000 H   0  0  0  0  0  0  0  0  0  0  0  0
   -0.8660    1.5000    0.0000 C   0  0  0  0  0  0  0  0  0  0  0  0
   -0.0000    1.0000    0.0000 C   0  0  0  0  0  0  0  0  0  0  0  0
    0.0000    0.0000    0.0000 C   0  0  0  0  0  0  0  0  0  0  0  0
   -0.8660   -0.5000    0.0000 C   0  0  0  0  0  0  0  0  0  0  0  0
   -0.8660    2.5000    0.0000 H   0  0  0  0  0  0  0  0  0  0  0  0
   -0.8660   -1.5000    0.0000 H   0  0  0  0  0  0  0  0  0  0  0  0
    0.8660    1.5000    0.0000 C   0  0  0  0  0  0  0  0  0  0  0  0
    1.7321    1.0000    0.0000 C   0  0  0  0  0  0  0  0  0  0  0  0
    1.7321   -0.0000    0.0000 C   0  0  0  0  0  0  0  0  0  0  0  0
    0.8660   -0.5000    0.0000 C   0  0  0  0  0  0  0  0  0  0  0  0
    0.8660    2.5000    0.0000 H   0  0  0  0  0  0  0  0  0  0  0  0
    2.5981    1.5000    0.0000 H   0  0  0  0  0  0  0  0  0  0  0  0
    0.8660   -1.5000    0.0000 H   0  0  0  0  0  0  0  0  0  0  0  0
    2.5981   -0.5000    0.0000 N   0  0  0  0  0  0  0  0  0  0  0  0
    2.5981   -1.5000    0.0000 O   0  0  0  0  0  0  0  0  0  0  0  0
    3.4641   -0.0000    0.0000 O   0  0  0  0  0  0  0  0  0  0  0  0
  1  2  2  0  0  0  0
  1  7  1  0  0  0  0
  2  3  1  0  0  0  0
  2  8  1  0  0  0  0
  3  4  2  0  0  0  0
  3 11  1  0  0  0  0
  4  5  1  0  0  0  0
  5  6  2  0  0  0  0
  5  9  1  0  0  0  0
  6  1  1  0  0  0  0
  6 10  1  0  0  0  0
 11 12  2  0  0  0  0
 11 15  1  0  0  0  0
 12 13  1  0  0  0  0
 12 17  1  0  0  0  0
 13 14  2  0  0  0  0
 14  4  1  0  0  0  0
 14 16  1  0  0  0  0
 17 18  2  0  0  0  0
 17 21  1  0  0  0  0
 18 19  1  0  0  0  0
 18 22  1  0  0  0  0
 19 20  2  0  0  0  0
 19 24  1  0  0  0  0
 20 13  1  0  0  0  0
 20 23  1  0  0  0  0
 24 26  2  0  0  0  0
 25 24  2  0  0  0  0
M  END
>  <activity>
Active

$$$$
mutag_d49
 OpenBabel01191712022D

 28 30  0  0  0  0  0  0  0  0999 V2000
    1.7321   -1.0000    0.0000 C   0  0  0  0  0  0  0  0  0  0  0  0
    0.8660   -1.5000    0.0000 C   0  0  0  0  0  0  0  0  0  0  0  0
   -0.0000   -1.0000    0.0000 C   0  0  0  0  0  0  0  0  0  0  0  0
    0.0000   -0.0000    0.0000 C   0  0  0  0  0  0  0  0  0  0  0  0
    0.8660    0.5000    0.0000 C   0  0  0  0  0  0  0  0  0  0  0  0
    1.7321   -0.0000    0.0000 C   0  0  0  0  0  0  0  0  0  0  0  0
    2.5981   -1.5000    0.0000 H   0  0  0  0  0  0  0  0  0  0  0  0
    0.8660   -2.5000    0.0000 H   0  0  0  0  0  0  0  0  0  0  0  0
    0.8660    1.5000    0.0000 H   0  0  0  0  0  0  0  0  0  0  0  0
   -1.7321   -1.0000    0.0000 C   0  0  0  0  0  0  0  0  0  0  0  0
   -2.5981   -1.5000    0.0000 C   0  0  0  0  0  0  0  0  0  0  0  0
   -3.4641   -1.0000    0.0000 C   0  0  0  0  0  0  0  0  0  0  0  0
   -3.4641    0.0000    0.0000 C   0  0  0  0  0  0  0  0  0  0  0  0
   -2.5981    0.5000    0.0000 C   0  0  0  0  0  0  0  0  0  0  0  0
   -1.7321    0.0000    0.0000 C   0  0  0  0  0  0  0  0  0  0  0  0
   -2.5981   -2.5000    0.0000 H   0  0  0  0  0  0  0  0  0  0  0  0
   -4.3301   -1.5000    0.0000 H   0  0  0  0  0  0  0  0  0  0  0  0
   -2.5981    1.5000    0.0000 H   0  0  0  0  0  0  0  0  0  0  0  0
   -0.8660   -1.5000    0.0000 N   0  0  0  0  0  0  0  0  0  0  0  0
   -0.8660    0.5000    0.0000 N   0  0  0  0  0  0  0  0  0  0  0  0
   -0.8660   -2.5000    0.0000 H   0  0  0  0  0  0  0  0  0  0  0  0
   -0.8660    1.5000    0.0000 H   0  0  0  0  0  0  0  0  0  0  0  0
   -4.3301    0.5000    0.0000 N   0  0  0  0  0  0  0  0  0  0  0  0
    2.5981    0.5000    0.0000 N   0  0  0  0  0  0  0  0  0  0  0  0
   -4.3301    1.5000    0.0000 O   0  0  0  0  0  0  0  0  0  0  0  0
   -5.1962    0.0000    0.0000 O   0  0  0  0  0  0  0  0  0  0  0  0
    3.4641    0.0000    0.0000 O   0  0  0  0  0  0  0  0  0  0  0  0
    2.5981    1.5000    0.0000 O   0  0  0  0  0  0  0  0  0  0  0  0
  1  2  2  0  0  0  0
  1  7  1  0  0  0  0
  2  3  1  0  0  0  0
  2  8  1  0  0  0  0
  3  4  2  0  0  0  0
  3 19  1  0  0  0  0
  4  5  1  0  0  0  0
  5  6  2  0  0  0  0
  5  9  1  0  0  0  0
  6  1  1  0  0  0  0
 10 11  2  0  0  0  0
 11 12  1  0  0  0  0
 11 16  1  0  0  0  0
 12 13  2  0  0  0  0
 12 17  1  0  0  0  0
 13 14  1  0  0  0  0
 14 15  2  0  0  0  0
 14 18  1  0  0  0  0
 15 10  1  0  0  0  0
 15 20  1  0  0  0  0
 19 10  1  0  0  0  0
 19 21  1  0  0  0  0
 20  4  1  0  0  0  0
 20 22  1  0  0  0  0
 23 13  1  0  0  0  0
 23 26  2  0  0  0  0
 24  6  1  0  0  0  0
 24 28  2  0  0  0  0
 25 23  2  0  0  0  0
 27 24  2  0  0  0  0
M  END
>  <activity>
Active

$$$$
mutag_d5
 OpenBabel01191712022D

 14 14  0  0  0  0  0  0  0  0999 V2000
   -0.0000   -0.0000    0.0000 C   0  0  0  0  0  0  0  0  0  0  0  0
   -0.8660    0.5000    0.0000 C   0  0  0  0  0  0  0  0  0  0  0  0
   -0.8660    1.5000    0.0000 C   0  0  0  0  0  0  0  0  0  0  0  0
   -0.0000    2.0000    0.0000 C   0  0  0  0  0  0  0  0  0  0  0  0
    0.8660    1.5000    0.0000 C   0  0  0  0  0  0  0  0  0  0  0  0
    0.8660    0.5000    0.0000 C   0  0  0  0  0  0  0  0  0  0  0  0
   -1.7321   -0.0000    0.0000 H   0  0  0  0  0  0  0  0  0  0  0  0
   -1.7321    2.0000    0.0000 H   0  0  0  0  0  0  0  0  0  0  0  0
    1.7321    0.0000    0.0000 H   0  0  0  0  0  0  0  0  0  0  0  0
    1.7321    2.0000    0.0000 N   0  0  0  0  0  0  0  0  0  0  0  0
    0.0000    3.0000    0.0000 F   0  0  0  0  0  0  0  0  0  0  0  0
   -0.0000   -1.0000    0.0000 F   0  0  0  0  0  0  0  0  0  0  0  0
    2.5981    1.5000    0.0000 O   0  0  0  0  0  0  0  0  0  0  0  0
    1.7321    3.0000    0.0000 O   0  0  0  0  0  0  0  0  0  0  0  0
  1  2  2  0  0  0  0
  2  3  1  0  0  0  0
  2  7  1  0  0  0  0
  3  4  2  0  0  0  0
  3  8  1  0  0  0  0
  4  5  1  0  0  0  0
  5  6  2  0  0  0  0
  6  1  1  0  0  0  0
  6  9  1  0  0  0  0
 10  5  1  0  0  0  0
 10 13  2  0  0  0  0
 10 14  2  0  0  0  0
 11  4  1  0  0  0  0
 12  1  1  0  0  0  0
M  END
>  <activity>
Inactive

$$$$
mutag_d50
 OpenBabel01191712022D

 22 23  0  0  0  0  0  0  0  0999 V2000
    1.7321   -1.0000    0.0000 C   0  0  0  0  0  0  0  0  0  0  0  0
    0.8660   -1.5000    0.0000 C   0  0  0  0  0  0  0  0  0  0  0  0
   -0.0000   -1.0000    0.0000 C   0  0  0  0  0  0  0  0  0  0  0  0
    0.0000   -0.0000    0.0000 C   0  0  0  0  0  0  0  0  0  0  0  0
    0.8660    0.5000    0.0000 C   0  0  0  0  0  0  0  0  0  0  0  0
    1.7321    0.0000    0.0000 C   0  0  0  0  0  0  0  0  0  0  0  0
    2.5981   -1.5000    0.0000 H   0  0  0  0  0  0  0  0  0  0  0  0
    0.8660    1.5000    0.0000 H   0  0  0  0  0  0  0  0  0  0  0  0
    2.5981    0.5000    0.0000 H   0  0  0  0  0  0  0  0  0  0  0  0
   -0.8660   -1.5000    0.0000 C   0  0  0  0  0  0  0  0  0  0  0  0
   -1.7321   -1.0000    0.0000 C   0  0  0  0  0  0  0  0  0  0  0  0
   -1.7321    0.0000    0.0000 C   0  0  0  0  0  0  0  0  0  0  0  0
   -0.8660    0.5000    0.0000 C   0  0  0  0  0  0  0  0  0  0  0  0
   -0.8660   -2.5000    0.0000 H   0  0  0  0  0  0  0  0  0  0  0  0
   -2.5981   -1.5000    0.0000 H   0  0  0  0  0  0  0  0  0  0  0  0
   -0.8660    1.5000    0.0000 H   0  0  0  0  0  0  0  0  0  0  0  0
   -2.5981    0.5000    0.0000 N   0  0  0  0  0  0  0  0  0  0  0  0
    0.8660   -2.5000    0.0000 N   0  0  0  0  0  0  0  0  0  0  0  0
   -2.5981    1.5000    0.0000 O   0  0  0  0  0  0  0  0  0  0  0  0
   -3.4641    0.0000    0.0000 O   0  0  0  0  0  0  0  0  0  0  0  0
    0.0000   -3.0000    0.0000 O   0  0  0  0  0  0  0  0  0  0  0  0
    1.7321   -3.0000    0.0000 O   0  0  0  0  0  0  0  0  0  0  0  0
  1  2  2  0  0  0  0
  1  7  1  0  0  0  0
  2  3  1  0  0  0  0
  2 18  1  0  0  0  0
  3  4  2  0  0  0  0
  3 10  1  0  0  0  0
  4  5  1  0  0  0  0
  5  6  2  0  0  0  0
  5  8  1  0  0  0  0
  6  1  1  0  0  0  0
  6  9  1  0  0  0  0
 10 11  2  0  0  0  0
 10 14  1  0  0  0  0
 11 12  1  0  0  0  0
 11 15  1  0  0  0  0
 12 13  2  0  0  0  0
 12 17  1  0  0  0  0
 13  4  1  0  0  0  0
 13 16  1  0  0  0  0
 17 20  2  0  0  0  0
 18 21  2  0  0  0  0
 18 22  2  0  0  0  0
 19 17  2  0  0  0  0
M  END
>  <activity>
Active

$$$$
mutag_d51
 OpenBabel01191712022D

 40 44  0  0  0  0  0  0  0  0999 V2000
    1.6272    1.8372    0.0000 C   0  0  0  0  0  0  0  0  0  0  0  0
    2.4310    1.3593    0.0000 C   0  0  0  0  0  0  0  0  0  0  0  0
    2.4188    0.4302    0.0000 C   0  0  0  0  0  0  0  0  0  0  0  0
    1.6029   -0.0210    0.0000 C   0  0  0  0  0  0  0  0  0  0  0  0
    0.8047    0.4513    0.0000 C   0  0  0  0  0  0  0  0  0  0  0  0
    0.8169    1.3804    0.0000 C   0  0  0  0  0  0  0  0  0  0  0  0
    3.2115   -0.0420    0.0000 C   0  0  0  0  0  0  0  0  0  0  0  0
    3.1994   -0.9660    0.0000 C   0  0  0  0  0  0  0  0  0  0  0  0
    2.3945   -1.4280    0.0000 C   0  0  0  0  0  0  0  0  0  0  0  0
    1.5909   -0.9450    0.0000 C   0  0  0  0  0  0  0  0  0  0  0  0
    0.7804   -1.4069    0.0000 C   0  0  0  0  0  0  0  0  0  0  0  0
   -0.0121   -0.9240    0.0000 C   0  0  0  0  0  0  0  0  0  0  0  0
    0.0000    0.0000    0.0000 C   0  0  0  0  0  0  0  0  0  0  0  0
    2.3824   -2.3571    0.0000 C   0  0  0  0  0  0  0  0  0  0  0  0
    1.5777   -2.8033    0.0000 C   0  0  0  0  0  0  0  0  0  0  0  0
    0.7683   -2.3360    0.0000 C   0  0  0  0  0  0  0  0  0  0  0  0
   -0.8183   -1.3755    0.0000 C   0  0  0  0  0  0  0  0  0  0  0  0
   -1.6125   -0.9031    0.0000 C   0  0  0  0  0  0  0  0  0  0  0  0
   -1.6004    0.0209    0.0000 C   0  0  0  0  0  0  0  0  0  0  0  0
   -0.7942    0.4725    0.0000 C   0  0  0  0  0  0  0  0  0  0  0  0
   -0.0394   -2.7953    0.0000 N   0  0  0  0  0  0  0  0  0  0  0  0
    3.2416    1.8134    0.0000 N   0  0  0  0  0  0  0  0  0  0  0  0
   -0.9683   -2.7716    0.0000 O   0  0  0  0  0  0  0  0  0  0  0  0
    0.4045   -3.6116    0.0000 O   0  0  0  0  0  0  0  0  0  0  0  0
    3.6957    1.0028    0.0000 O   0  0  0  0  0  0  0  0  0  0  0  0
    3.7166    2.6120    0.0000 O   0  0  0  0  0  0  0  0  0  0  0  0
    1.6380    2.7652    0.0000 H   0  0  0  0  0  0  0  0  0  0  0  0
    0.0187    1.8538    0.0000 H   0  0  0  0  0  0  0  0  0  0  0  0
    4.0212    0.4112    0.0000 H   0  0  0  0  0  0  0  0  0  0  0  0
    3.9994   -1.4362    0.0000 H   0  0  0  0  0  0  0  0  0  0  0  0
    3.1824   -2.8273    0.0000 H   0  0  0  0  0  0  0  0  0  0  0  0
    1.5697   -3.7312    0.0000 H   0  0  0  0  0  0  0  0  0  0  0  0
   -1.2930   -2.1734    0.0000 H   0  0  0  0  0  0  0  0  0  0  0  0
   -0.3646   -2.1856    0.0000 H   0  0  0  0  0  0  0  0  0  0  0  0
   -2.5408   -0.8909    0.0000 H   0  0  0  0  0  0  0  0  0  0  0  0
   -2.0872   -1.7010    0.0000 H   0  0  0  0  0  0  0  0  0  0  0  0
   -2.0541    0.8310    0.0000 H   0  0  0  0  0  0  0  0  0  0  0  0
   -2.5288    0.0331    0.0000 H   0  0  0  0  0  0  0  0  0  0  0  0
   -0.3195    1.2704    0.0000 H   0  0  0  0  0  0  0  0  0  0  0  0
   -1.2478    1.2825    0.0000 H   0  0  0  0  0  0  0  0  0  0  0  0
  1  2  2  0  0  0  0
  1 27  1  0  0  0  0
  2  3  1  0  0  0  0
  2 22  1  0  0  0  0
  3  4  2  0  0  0  0
  3  7  1  0  0  0  0
  4  5  1  0  0  0  0
  5  6  2  0  0  0  0
  6  1  1  0  0  0  0
  6 28  1  0  0  0  0
  7  8  2  0  0  0  0
  7 29  1  0  0  0  0
  8  9  1  0  0  0  0
  8 30  1  0  0  0  0
  9 10  2  0  0  0  0
  9 14  1  0  0  0  0
 10  4  1  0  0  0  0
 10 11  1  0  0  0  0
 11 12  1  0  0  0  0
 12 13  2  0  0  0  0
 12 17  1  0  0  0  0
 13  5  1  0  0  0  0
 14 15  2  0  0  0  0
 14 31  1  0  0  0  0
 15 16  1  0  0  0  0
 15 32  1  0  0  0  0
 16 11  2  0  0  0  0
 17 18  1  0  0  0  0
 17 33  1  0  0  0  0
 17 34  1  0  0  0  0
 18 19  1  0  0  0  0
 18 35  1  0  0  0  0
 18 36  1  0  0  0  0
 19 20  1  0  0  0  0
 19 37  1  0  0  0  0
 19 38  1  0  0  0  0
 20 13  1  0  0  0  0
 20 39  1  0  0  0  0
 20 40  1  0  0  0  0
 21 16  1  0  0  0  0
 21 24  2  0  0  0  0
 22 25  2  0  0  0  0
 22 26  2  0  0  0  0
 23 21  2  0  0  0  0
M  END
>  <activity>
Active

$$$$
mutag_d52
 OpenBabel01191712022D

 40 44  0  0  0  0  0  0  0  0999 V2000
    1.6285    1.8386    0.0000 C   0  0  0  0  0  0  0  0  0  0  0  0
    2.4328    1.3604    0.0000 C   0  0  0  0  0  0  0  0  0  0  0  0
    2.4207    0.4305    0.0000 C   0  0  0  0  0  0  0  0  0  0  0  0
    1.6042   -0.0210    0.0000 C   0  0  0  0  0  0  0  0  0  0  0  0
    0.8053    0.4517    0.0000 C   0  0  0  0  0  0  0  0  0  0  0  0
    0.8175    1.3815    0.0000 C   0  0  0  0  0  0  0  0  0  0  0  0
    3.2139   -0.0420    0.0000 C   0  0  0  0  0  0  0  0  0  0  0  0
    3.2018   -0.9667    0.0000 C   0  0  0  0  0  0  0  0  0  0  0  0
    2.3964   -1.4291    0.0000 C   0  0  0  0  0  0  0  0  0  0  0  0
    1.5921   -0.9457    0.0000 C   0  0  0  0  0  0  0  0  0  0  0  0
    0.7810   -1.4080    0.0000 C   0  0  0  0  0  0  0  0  0  0  0  0
   -0.0121   -0.9247    0.0000 C   0  0  0  0  0  0  0  0  0  0  0  0
    0.0000    0.0000    0.0000 C   0  0  0  0  0  0  0  0  0  0  0  0
    2.3842   -2.3589    0.0000 C   0  0  0  0  0  0  0  0  0  0  0  0
    1.5789   -2.8055    0.0000 C   0  0  0  0  0  0  0  0  0  0  0  0
    0.7689   -2.3378    0.0000 C   0  0  0  0  0  0  0  0  0  0  0  0
   -0.8190   -1.3766    0.0000 C   0  0  0  0  0  0  0  0  0  0  0  0
   -1.6137   -0.9038    0.0000 C   0  0  0  0  0  0  0  0  0  0  0  0
   -1.6016    0.0209    0.0000 C   0  0  0  0  0  0  0  0  0  0  0  0
   -0.7948    0.4728    0.0000 C   0  0  0  0  0  0  0  0  0  0  0  0
   -0.0395   -2.7974    0.0000 N   0  0  0  0  0  0  0  0  0  0  0  0
   -0.9690   -2.7737    0.0000 O   0  0  0  0  0  0  0  0  0  0  0  0
    0.4048   -3.6144    0.0000 O   0  0  0  0  0  0  0  0  0  0  0  0
    3.1746   -2.8313    0.0000 N   0  0  0  0  0  0  0  0  0  0  0  0
    3.3487   -3.7355    0.0000 O   0  0  0  0  0  0  0  0  0  0  0  0
    3.8706   -2.2285    0.0000 O   0  0  0  0  0  0  0  0  0  0  0  0
    1.6426    2.7665    0.0000 H   0  0  0  0  0  0  0  0  0  0  0  0
    3.2424    1.8139    0.0000 H   0  0  0  0  0  0  0  0  0  0  0  0
    0.0193    1.8548    0.0000 H   0  0  0  0  0  0  0  0  0  0  0  0
    4.0237    0.4112    0.0000 H   0  0  0  0  0  0  0  0  0  0  0  0
    4.0019   -1.4370    0.0000 H   0  0  0  0  0  0  0  0  0  0  0  0
    1.5709   -3.7334    0.0000 H   0  0  0  0  0  0  0  0  0  0  0  0
   -1.2940   -2.1751    0.0000 H   0  0  0  0  0  0  0  0  0  0  0  0
   -0.3649   -2.1873    0.0000 H   0  0  0  0  0  0  0  0  0  0  0  0
   -2.5428   -0.8916    0.0000 H   0  0  0  0  0  0  0  0  0  0  0  0
   -2.0888   -1.7023    0.0000 H   0  0  0  0  0  0  0  0  0  0  0  0
   -2.0557    0.8316    0.0000 H   0  0  0  0  0  0  0  0  0  0  0  0
   -2.5307    0.0331    0.0000 H   0  0  0  0  0  0  0  0  0  0  0  0
   -0.3197    1.2714    0.0000 H   0  0  0  0  0  0  0  0  0  0  0  0
   -1.2488    1.2835    0.0000 H   0  0  0  0  0  0  0  0  0  0  0  0
  1  2  2  0  0  0  0
  1 27  1  0  0  0  0
  2  3  1  0  0  0  0
  2 28  1  0  0  0  0
  3  4  2  0  0  0  0
  3  7  1  0  0  0  0
  4  5  1  0  0  0  0
  5  6  2  0  0  0  0
  6  1  1  0  0  0  0
  6 29  1  0  0  0  0
  7  8  2  0  0  0  0
  7 30  1  0  0  0  0
  8  9  1  0  0  0  0
  8 31  1  0  0  0  0
  9 10  2  0  0  0  0
  9 14  1  0  0  0  0
 10  4  1  0  0  0  0
 10 11  1  0  0  0  0
 11 12  1  0  0  0  0
 12 13  2  0  0  0  0
 12 17  1  0  0  0  0
 13  5  1  0  0  0  0
 14 15  2  0  0  0  0
 14 24  1  0  0  0  0
 15 16  1  0  0  0  0
 15 32  1  0  0  0  0
 16 11  2  0  0  0  0
 17 18  1  0  0  0  0
 17 33  1  0  0  0  0
 17 34  1  0  0  0  0
 18 19  1  0  0  0  0
 18 35  1  0  0  0  0
 18 36  1  0  0  0  0
 19 20  1  0  0  0  0
 19 37  1  0  0  0  0
 19 38  1  0  0  0  0
 20 13  1  0  0  0  0
 20 39  1  0  0  0  0
 20 40  1  0  0  0  0
 21 16  1  0  0  0  0
 21 23  2  0  0  0  0
 22 21  2  0  0  0  0
 24 26  2  0  0  0  0
 25 24  2  0  0  0  0
M  END
>  <activity>
Active

$$$$
mutag_d53
 OpenBabel01191712022D

 27 29  0  0  0  0  0  0  0  0999 V2000
    3.3350   -0.0007    0.0000 C   0  0  0  0  0  0  0  0  0  0  0  0
    2.5014   -0.4818    0.0000 C   0  0  0  0  0  0  0  0  0  0  0  0
    1.6675   -0.0003    0.0000 C   0  0  0  0  0  0  0  0  0  0  0  0
    1.6677    0.9627    0.0000 C   0  0  0  0  0  0  0  0  0  0  0  0
    2.5018    1.4439    0.0000 C   0  0  0  0  0  0  0  0  0  0  0  0
    3.3352    0.9624    0.0000 C   0  0  0  0  0  0  0  0  0  0  0  0
    2.5012   -1.4916    0.0000 H   0  0  0  0  0  0  0  0  0  0  0  0
    2.5020    2.4537    0.0000 H   0  0  0  0  0  0  0  0  0  0  0  0
    4.2098    1.4671    0.0000 H   0  0  0  0  0  0  0  0  0  0  0  0
   -0.0000   -0.0000    0.0000 C   0  0  0  0  0  0  0  0  0  0  0  0
   -0.8341   -0.4811    0.0000 C   0  0  0  0  0  0  0  0  0  0  0  0
   -1.6675    0.0003    0.0000 C   0  0  0  0  0  0  0  0  0  0  0  0
   -1.6673    0.9634    0.0000 C   0  0  0  0  0  0  0  0  0  0  0  0
   -0.8337    1.4445    0.0000 C   0  0  0  0  0  0  0  0  0  0  0  0
    0.0002    0.9631    0.0000 C   0  0  0  0  0  0  0  0  0  0  0  0
   -0.8344   -1.4909    0.0000 H   0  0  0  0  0  0  0  0  0  0  0  0
   -2.5417    1.4685    0.0000 H   0  0  0  0  0  0  0  0  0  0  0  0
   -0.8336    2.4543    0.0000 H   0  0  0  0  0  0  0  0  0  0  0  0
    0.8339   -0.4815    0.0000 C   0  0  0  0  0  0  0  0  0  0  0  0
    0.8338   -1.4912    0.0000 H   0  0  0  0  0  0  0  0  0  0  0  0
    1.7084   -0.9864    0.0000 H   0  0  0  0  0  0  0  0  0  0  0  0
   -2.5012   -0.4807    0.0000 N   0  0  0  0  0  0  0  0  0  0  0  0
    4.1684   -0.4821    0.0000 N   0  0  0  0  0  0  0  0  0  0  0  0
   -3.4165   -0.1831    0.0000 O   0  0  0  0  0  0  0  0  0  0  0  0
   -2.3013   -1.4222    0.0000 O   0  0  0  0  0  0  0  0  0  0  0  0
    4.2688   -1.4393    0.0000 O   0  0  0  0  0  0  0  0  0  0  0  0
    4.9472    0.0835    0.0000 O   0  0  0  0  0  0  0  0  0  0  0  0
  1  2  2  0  0  0  0
  1 23  1  0  0  0  0
  2  3  1  0  0  0  0
  2  7  1  0  0  0  0
  3  4  2  0  0  0  0
  3 19  1  0  0  0  0
  4  5  1  0  0  0  0
  4 15  1  0  0  0  0
  5  6  2  0  0  0  0
  5  8  1  0  0  0  0
  6  1  1  0  0  0  0
  6  9  1  0  0  0  0
 10 11  2  0  0  0  0
 11 12  1  0  0  0  0
 11 16  1  0  0  0  0
 12 13  2  0  0  0  0
 12 22  1  0  0  0  0
 13 14  1  0  0  0  0
 13 17  1  0  0  0  0
 14 15  2  0  0  0  0
 14 18  1  0  0  0  0
 15 10  1  0  0  0  0
 19 10  1  0  0  0  0
 19 20  1  0  0  0  0
 19 21  1  0  0  0  0
 22 24  2  0  0  0  0
 22 25  2  0  0  0  0
 23 26  2  0  0  0  0
 23 27  2  0  0  0  0
M  END
>  <activity>
Active

$$$$
mutag_d54
 OpenBabel01191712022D

 24 26  0  0  0  0  0  0  0  0999 V2000
   -1.7321    1.0000    0.0000 C   0  0  0  0  0  0  0  0  0  0  0  0
   -0.8660    1.5000    0.0000 C   0  0  0  0  0  0  0  0  0  0  0  0
    0.0000    1.0000    0.0000 C   0  0  0  0  0  0  0  0  0  0  0  0
    0.0000    0.0000    0.0000 C   0  0  0  0  0  0  0  0  0  0  0  0
   -0.8660   -0.5000    0.0000 C   0  0  0  0  0  0  0  0  0  0  0  0
   -1.7321    0.0000    0.0000 C   0  0  0  0  0  0  0  0  0  0  0  0
   -0.8660    2.5000    0.0000 H   0  0  0  0  0  0  0  0  0  0  0  0
   -0.8660   -1.5000    0.0000 H   0  0  0  0  0  0  0  0  0  0  0  0
   -2.5981   -0.5000    0.0000 H   0  0  0  0  0  0  0  0  0  0  0  0
    1.7321    1.0000    0.0000 C   0  0  0  0  0  0  0  0  0  0  0  0
    2.5981    1.5000    0.0000 C   0  0  0  0  0  0  0  0  0  0  0  0
    3.4641    1.0000    0.0000 C   0  0  0  0  0  0  0  0  0  0  0  0
    3.4641   -0.0000    0.0000 C   0  0  0  0  0  0  0  0  0  0  0  0
    2.5981   -0.5000    0.0000 C   0  0  0  0  0  0  0  0  0  0  0  0
    1.7321   -0.0000    0.0000 C   0  0  0  0  0  0  0  0  0  0  0  0
    2.5981    2.5000    0.0000 H   0  0  0  0  0  0  0  0  0  0  0  0
    2.5981   -1.5000    0.0000 H   0  0  0  0  0  0  0  0  0  0  0  0
    0.8660    1.5000    0.0000 O   0  0  0  0  0  0  0  0  0  0  0  0
    0.8660   -0.5000    0.0000 O   0  0  0  0  0  0  0  0  0  0  0  0
   -2.5981    1.5000    0.0000 N   0  0  0  0  0  0  0  0  0  0  0  0
   -2.5981    2.5000    0.0000 O   0  0  0  0  0  0  0  0  0  0  0  0
   -3.4641    1.0000    0.0000 O   0  0  0  0  0  0  0  0  0  0  0  0
    4.3301   -0.5000    0.0000 Cl  0  0  0  0  0  0  0  0  0  0  0  0
    4.3301    1.5000    0.0000 Cl  0  0  0  0  0  0  0  0  0  0  0  0
  1  2  2  0  0  0  0
  1 20  1  0  0  0  0
  2  3  1  0  0  0  0
  2  7  1  0  0  0  0
  3  4  2  0  0  0  0
  3 18  1  0  0  0  0
  4  5  1  0  0  0  0
  5  6  2  0  0  0  0
  5  8  1  0  0  0  0
  6  1  1  0  0  0  0
  6  9  1  0  0  0  0
 10 11  2  0  0  0  0
 11 12  1  0  0  0  0
 11 16  1  0  0  0  0
 12 13  2  0  0  0  0
 12 24  1  0  0  0  0
 13 14  1  0  0  0  0
 13 23  1  0  0  0  0
 14 15  2  0  0  0  0
 14 17  1  0  0  0  0
 15 10  1  0  0  0  0
 15 19  1  0  0  0  0
 18 10  1  0  0  0  0
 19  4  1  0  0  0  0
 20 22  2  0  0  0  0
 21 20  2  0  0  0  0
M  END
>  <activity>
Active

$$$$
mutag_d55
 OpenBabel01191712022D

 23 24  0  0  0  0  0  0  0  0999 V2000
    1.7321   -1.0000    0.0000 C   0  0  0  0  0  0  0  0  0  0  0  0
    0.8660   -1.5000    0.0000 C   0  0  0  0  0  0  0  0  0  0  0  0
    0.0000   -1.0000    0.0000 C   0  0  0  0  0  0  0  0  0  0  0  0
    0.0000   -0.0000    0.0000 C   0  0  0  0  0  0  0  0  0  0  0  0
    0.8660    0.5000    0.0000 C   0  0  0  0  0  0  0  0  0  0  0  0
    1.7321    0.0000    0.0000 C   0  0  0  0  0  0  0  0  0  0  0  0
    2.5981   -1.5000    0.0000 H   0  0  0  0  0  0  0  0  0  0  0  0
    0.8660   -2.5000    0.0000 H   0  0  0  0  0  0  0  0  0  0  0  0
    0.8660    1.5000    0.0000 H   0  0  0  0  0  0  0  0  0  0  0  0
    2.5981    0.5000    0.0000 H   0  0  0  0  0  0  0  0  0  0  0  0
   -0.8660   -1.5000    0.0000 C   0  0  0  0  0  0  0  0  0  0  0  0
   -1.7321   -1.0000    0.0000 C   0  0  0  0  0  0  0  0  0  0  0  0
   -1.7321    0.0000    0.0000 C   0  0  0  0  0  0  0  0  0  0  0  0
   -0.8660    0.5000    0.0000 C   0  0  0  0  0  0  0  0  0  0  0  0
   -0.8660   -2.5000    0.0000 H   0  0  0  0  0  0  0  0  0  0  0  0
   -2.5981   -1.5000    0.0000 H   0  0  0  0  0  0  0  0  0  0  0  0
   -0.8660    1.5000    0.0000 C   0  0  0  0  0  0  0  0  0  0  0  0
   -1.3660    2.3660    0.0000 H   0  0  0  0  0  0  0  0  0  0  0  0
   -1.8660    1.5000    0.0000 H   0  0  0  0  0  0  0  0  0  0  0  0
   -0.0000    2.0000    0.0000 H   0  0  0  0  0  0  0  0  0  0  0  0
   -2.5981    0.5000    0.0000 N   0  0  0  0  0  0  0  0  0  0  0  0
   -2.5981    1.5000    0.0000 O   0  0  0  0  0  0  0  0  0  0  0  0
   -3.4641   -0.0000    0.0000 O   0  0  0  0  0  0  0  0  0  0  0  0
  1  2  2  0  0  0  0
  1  7  1  0  0  0  0
  2  3  1  0  0  0  0
  2  8  1  0  0  0  0
  3  4  2  0  0  0  0
  3 11  1  0  0  0  0
  4  5  1  0  0  0  0
  5  6  2  0  0  0  0
  5  9  1  0  0  0  0
  6  1  1  0  0  0  0
  6 10  1  0  0  0  0
 11 12  2  0  0  0  0
 11 15  1  0  0  0  0
 12 13  1  0  0  0  0
 12 16  1  0  0  0  0
 13 14  2  0  0  0  0
 13 21  1  0  0  0  0
 14  4  1  0  0  0  0
 17 14  1  0  0  0  0
 17 18  1  0  0  0  0
 17 19  1  0  0  0  0
 17 20  1  0  0  0  0
 21 23  2  0  0  0  0
 22 21  2  0  0  0  0
M  END
>  <activity>
Inactive

$$$$
mutag_d56
 OpenBabel01191712022D

 26 28  0  0  0  0  0  0  0  0999 V2000
    1.7321   -1.0000    0.0000 C   0  0  0  0  0  0  0  0  0  0  0  0
    0.8660   -1.5000    0.0000 C   0  0  0  0  0  0  0  0  0  0  0  0
    0.0000   -1.0000    0.0000 C   0  0  0  0  0  0  0  0  0  0  0  0
    0.0000   -0.0000    0.0000 C   0  0  0  0  0  0  0  0  0  0  0  0
    0.8660    0.5000    0.0000 C   0  0  0  0  0  0  0  0  0  0  0  0
    1.7321    0.0000    0.0000 C   0  0  0  0  0  0  0  0  0  0  0  0
    2.5981   -1.5000    0.0000 H   0  0  0  0  0  0  0  0  0  0  0  0
    0.8660   -2.5000    0.0000 H   0  0  0  0  0  0  0  0  0  0  0  0
    0.8660    1.5000    0.0000 H   0  0  0  0  0  0  0  0  0  0  0  0
    2.5981    0.5000    0.0000 H   0  0  0  0  0  0  0  0  0  0  0  0
   -1.7321   -1.0000    0.0000 C   0  0  0  0  0  0  0  0  0  0  0  0
   -2.5981   -1.5000    0.0000 C   0  0  0  0  0  0  0  0  0  0  0  0
   -3.4641   -1.0000    0.0000 C   0  0  0  0  0  0  0  0  0  0  0  0
   -3.4641    0.0000    0.0000 C   0  0  0  0  0  0  0  0  0  0  0  0
   -2.5981    0.5000    0.0000 C   0  0  0  0  0  0  0  0  0  0  0  0
   -1.7321    0.0000    0.0000 C   0  0  0  0  0  0  0  0  0  0  0  0
   -2.5981   -2.5000    0.0000 H   0  0  0  0  0  0  0  0  0  0  0  0
   -4.3301   -1.5000    0.0000 H   0  0  0  0  0  0  0  0  0  0  0  0
   -2.5981    1.5000    0.0000 H   0  0  0  0  0  0  0  0  0  0  0  0
   -0.8660   -1.5000    0.0000 N   0  0  0  0  0  0  0  0  0  0  0  0
   -0.8660    0.5000    0.0000 N   0  0  0  0  0  0  0  0  0  0  0  0
   -0.8660   -2.5000    0.0000 H   0  0  0  0  0  0  0  0  0  0  0  0
   -0.8660    1.5000    0.0000 H   0  0  0  0  0  0  0  0  0  0  0  0
   -4.3301    0.5000    0.0000 N   0  0  0  0  0  0  0  0  0  0  0  0
   -4.3301    1.5000    0.0000 O   0  0  0  0  0  0  0  0  0  0  0  0
   -5.1962    0.0000    0.0000 O   0  0  0  0  0  0  0  0  0  0  0  0
  1  2  2  0  0  0  0
  1  7  1  0  0  0  0
  2  3  1  0  0  0  0
  2  8  1  0  0  0  0
  3  4  2  0  0  0  0
  3 20  1  0  0  0  0
  4  5  1  0  0  0  0
  5  6  2  0  0  0  0
  5  9  1  0  0  0  0
  6  1  1  0  0  0  0
  6 10  1  0  0  0  0
 11 12  2  0  0  0  0
 12 13  1  0  0  0  0
 12 17  1  0  0  0  0
 13 14  2  0  0  0  0
 13 18  1  0  0  0  0
 14 15  1  0  0  0  0
 14 24  1  0  0  0  0
 15 16  2  0  0  0  0
 15 19  1  0  0  0  0
 16 11  1  0  0  0  0
 16 21  1  0  0  0  0
 20 11  1  0  0  0  0
 20 22  1  0  0  0  0
 21  4  1  0  0  0  0
 21 23  1  0  0  0  0
 24 26  2  0  0  0  0
 25 24  2  0  0  0  0
M  END
>  <activity>
Active

$$$$
mutag_d57
 OpenBabel01191712022D

 28 29  0  0  0  0  0  0  0  0999 V2000
   -3.3486   -1.9333    0.0000 C   0  0  0  0  0  0  0  0  0  0  0  0
   -3.3486   -0.9667    0.0000 C   0  0  0  0  0  0  0  0  0  0  0  0
   -2.5115   -0.4833    0.0000 C   0  0  0  0  0  0  0  0  0  0  0  0
   -1.6743   -0.9667    0.0000 C   0  0  0  0  0  0  0  0  0  0  0  0
   -1.6743   -1.9333    0.0000 C   0  0  0  0  0  0  0  0  0  0  0  0
   -2.5115   -2.4167    0.0000 C   0  0  0  0  0  0  0  0  0  0  0  0
   -4.1858   -0.4833    0.0000 H   0  0  0  0  0  0  0  0  0  0  0  0
   -2.5115    0.4833    0.0000 H   0  0  0  0  0  0  0  0  0  0  0  0
   -0.8372   -2.4167    0.0000 H   0  0  0  0  0  0  0  0  0  0  0  0
   -2.5115   -3.3833    0.0000 H   0  0  0  0  0  0  0  0  0  0  0  0
    0.0000    0.0000    0.0000 C   0  0  0  0  0  0  0  0  0  0  0  0
    0.0000    0.9667    0.0000 C   0  0  0  0  0  0  0  0  0  0  0  0
    0.8372    1.4500    0.0000 C   0  0  0  0  0  0  0  0  0  0  0  0
    1.6743    0.9667    0.0000 C   0  0  0  0  0  0  0  0  0  0  0  0
    1.6743   -0.0000    0.0000 C   0  0  0  0  0  0  0  0  0  0  0  0
    0.8372   -0.4833    0.0000 C   0  0  0  0  0  0  0  0  0  0  0  0
   -0.8372    1.4500    0.0000 H   0  0  0  0  0  0  0  0  0  0  0  0
    0.8372    2.4167    0.0000 H   0  0  0  0  0  0  0  0  0  0  0  0
    2.5115   -0.4833    0.0000 H   0  0  0  0  0  0  0  0  0  0  0  0
    0.8372   -1.4500    0.0000 N   0  0  0  0  0  0  0  0  0  0  0  0
    2.5115    1.4500    0.0000 N   0  0  0  0  0  0  0  0  0  0  0  0
   -4.1858   -2.4167    0.0000 N   0  0  0  0  0  0  0  0  0  0  0  0
    0.0000   -1.9333    0.0000 O   0  0  0  0  0  0  0  0  0  0  0  0
    1.6743   -1.9333    0.0000 O   0  0  0  0  0  0  0  0  0  0  0  0
    3.3486    0.9667    0.0000 O   0  0  0  0  0  0  0  0  0  0  0  0
    2.5115    2.4167    0.0000 O   0  0  0  0  0  0  0  0  0  0  0  0
   -5.0229   -1.9333    0.0000 O   0  0  0  0  0  0  0  0  0  0  0  0
   -4.1858   -3.3833    0.0000 O   0  0  0  0  0  0  0  0  0  0  0  0
  1  2  2  0  0  0  0
  1 22  1  0  0  0  0
  2  3  1  0  0  0  0
  2  7  1  0  0  0  0
  3  4  2  0  0  0  0
  3  8  1  0  0  0  0
  4  5  1  0  0  0  0
  5  6  2  0  0  0  0
  5  9  1  0  0  0  0
  6  1  1  0  0  0  0
  6 10  1  0  0  0  0
 11 12  2  0  0  0  0
 11  4  1  0  0  0  0
 12 13  1  0  0  0  0
 12 17  1  0  0  0  0
 13 14  2  0  0  0  0
 13 18  1  0  0  0  0
 14 15  1  0  0  0  0
 14 21  1  0  0  0  0
 15 16  2  0  0  0  0
 15 19  1  0  0  0  0
 16 11  1  0  0  0  0
 20 16  1  0  0  0  0
 20 24  2  0  0  0  0
 21 26  2  0  0  0  0
 22 28  2  0  0  0  0
 23 20  2  0  0  0  0
 25 21  2  0  0  0  0
 27 22  2  0  0  0  0
M  END
>  <activity>
Active

$$$$
mutag_d58
 OpenBabel01191712022D

 32 35  0  0  0  0  0  0  0  0999 V2000
   -2.5981    2.5000    0.0000 C   0  0  0  0  0  0  0  0  0  0  0  0
   -1.7321    3.0000    0.0000 C   0  0  0  0  0  0  0  0  0  0  0  0
   -0.8660    2.5000    0.0000 C   0  0  0  0  0  0  0  0  0  0  0  0
   -0.8660    1.5000    0.0000 C   0  0  0  0  0  0  0  0  0  0  0  0
   -1.7321    1.0000    0.0000 C   0  0  0  0  0  0  0  0  0  0  0  0
   -2.5981    1.5000    0.0000 C   0  0  0  0  0  0  0  0  0  0  0  0
   -0.1294    2.7272    0.0000 C   0  0  0  0  0  0  0  0  0  0  0  0
    0.5075    2.2930    0.0000 C   0  0  0  0  0  0  0  0  0  0  0  0
    0.5651    1.5243    0.0000 C   0  0  0  0  0  0  0  0  0  0  0  0
   -0.0000    1.0000    0.0000 C   0  0  0  0  0  0  0  0  0  0  0  0
    0.0000    0.0000    0.0000 C   0  0  0  0  0  0  0  0  0  0  0  0
   -0.8660   -0.5000    0.0000 C   0  0  3  0  0  0  0  0  0  0  0  0
   -1.7321   -0.0000    0.0000 C   0  0  3  0  0  0  0  0  0  0  0  0
    1.1705    1.1282    0.0000 C   0  0  0  0  0  0  0  0  0  0  0  0
    1.2382    0.4079    0.0000 C   0  0  0  0  0  0  0  0  0  0  0  0
    0.7173   -0.0942    0.0000 C   0  0  0  0  0  0  0  0  0  0  0  0
    2.0268    1.6445    0.0000 N   0  0  0  0  0  0  0  0  0  0  0  0
    2.9022    1.1611    0.0000 O   0  0  0  0  0  0  0  0  0  0  0  0
    2.0078    2.6444    0.0000 O   0  0  0  0  0  0  0  0  0  0  0  0
   -3.4641    3.0000    0.0000 H   0  0  0  0  0  0  0  0  0  0  0  0
   -1.7321    4.0000    0.0000 H   0  0  0  0  0  0  0  0  0  0  0  0
   -3.4641    1.0000    0.0000 H   0  0  0  0  0  0  0  0  0  0  0  0
    0.0196    3.7160    0.0000 H   0  0  0  0  0  0  0  0  0  0  0  0
    1.3735    2.7930    0.0000 H   0  0  0  0  0  0  0  0  0  0  0  0
    2.1759    0.0603    0.0000 H   0  0  0  0  0  0  0  0  0  0  0  0
    1.0302   -1.0440    0.0000 H   0  0  0  0  0  0  0  0  0  0  0  0
   -1.3660   -1.3660    0.0000 O   0  0  0  0  0  0  0  0  0  0  0  0
   -2.5254    0.6088    0.0000 O   0  0  0  0  0  0  0  0  0  0  0  0
   -0.8660   -2.2321    0.0000 H   0  0  0  0  0  0  0  0  0  0  0  0
   -3.4493    0.2261    0.0000 H   0  0  0  0  0  0  0  0  0  0  0  0
   -0.3660   -1.3660    0.0000 H   0  0  0  0  0  0  0  0  0  0  0  0
   -1.9909   -0.9659    0.0000 H   0  0  0  0  0  0  0  0  0  0  0  0
  1  2  2  0  0  0  0
  1 20  1  0  0  0  0
  2  3  1  0  0  0  0
  2 21  1  0  0  0  0
  3  4  2  0  0  0  0
  3  7  1  0  0  0  0
  4  5  1  0  0  0  0
  5  6  2  0  0  0  0
  6  1  1  0  0  0  0
  6 22  1  0  0  0  0
  7  8  2  0  0  0  0
  7 23  1  0  0  0  0
  8  9  1  0  0  0  0
  8 24  1  0  0  0  0
  9 10  2  0  0  0  0
  9 14  1  0  0  0  0
 10  4  1  0  0  0  0
 10 11  1  0  0  0  0
 11 12  1  0  0  0  0
 12 13  1  0  0  0  0
 12 27  1  0  0  0  0
 12 31  1  0  0  0  0
 13  5  1  0  0  0  0
 13 28  1  0  0  0  0
 13 32  1  0  0  0  0
 14 15  2  0  0  0  0
 14 17  1  0  0  0  0
 15 16  1  0  0  0  0
 15 25  1  0  0  0  0
 16 11  2  0  0  0  0
 16 26  1  0  0  0  0
 17 18  2  0  0  0  0
 17 19  2  0  0  0  0
 27 29  1  0  0  0  0
 28 30  1  0  0  0  0
M  END
>  <activity>
Active

$$$$
mutag_d59
 OpenBabel01191712022D

 34 38  0  0  0  0  0  0  0  0999 V2000
    4.9406   -0.1647    0.0000 C   0  0  0  0  0  0  0  0  0  0  0  0
    4.0973   -0.6516    0.0000 C   0  0  0  0  0  0  0  0  0  0  0  0
    3.2539   -0.1647    0.0000 C   0  0  0  0  0  0  0  0  0  0  0  0
    3.2539    0.8091    0.0000 C   0  0  0  0  0  0  0  0  0  0  0  0
    4.0973    1.2961    0.0000 C   0  0  0  0  0  0  0  0  0  0  0  0
    4.9406    0.8091    0.0000 C   0  0  0  0  0  0  0  0  0  0  0  0
    4.0973   -1.6255    0.0000 C   0  0  0  0  0  0  0  0  0  0  0  0
    3.2539   -2.1124    0.0000 C   0  0  0  0  0  0  0  0  0  0  0  0
    2.4105   -1.6255    0.0000 C   0  0  0  0  0  0  0  0  0  0  0  0
    2.4105   -0.6516    0.0000 C   0  0  0  0  0  0  0  0  0  0  0  0
    1.5671   -2.1124    0.0000 C   0  0  0  0  0  0  0  0  0  0  0  0
    0.7237   -1.6255    0.0000 C   0  0  0  0  0  0  0  0  0  0  0  0
    0.7237   -0.6516    0.0000 C   0  0  0  0  0  0  0  0  0  0  0  0
    1.5671   -0.1647    0.0000 C   0  0  0  0  0  0  0  0  0  0  0  0
   -0.0532   -1.7785    0.0000 C   0  0  0  0  0  0  0  0  0  0  0  0
   -0.6573   -1.2665    0.0000 C   0  0  0  0  0  0  0  0  0  0  0  0
   -0.6336   -0.4750    0.0000 C   0  0  0  0  0  0  0  0  0  0  0  0
   -0.0000   -0.0000    0.0000 C   0  0  0  0  0  0  0  0  0  0  0  0
    1.3646    0.7879    0.0000 C   0  0  0  0  0  0  0  0  0  0  0  0
    0.3961    0.8897    0.0000 C   0  0  0  0  0  0  0  0  0  0  0  0
    5.7840   -0.6516    0.0000 H   0  0  0  0  0  0  0  0  0  0  0  0
    2.4105    1.2961    0.0000 H   0  0  0  0  0  0  0  0  0  0  0  0
    4.0973    2.2699    0.0000 H   0  0  0  0  0  0  0  0  0  0  0  0
    5.7840    1.2961    0.0000 H   0  0  0  0  0  0  0  0  0  0  0  0
    4.9406   -2.1124    0.0000 H   0  0  0  0  0  0  0  0  0  0  0  0
    3.2539   -3.0863    0.0000 H   0  0  0  0  0  0  0  0  0  0  0  0
    1.5671   -3.0863    0.0000 H   0  0  0  0  0  0  0  0  0  0  0  0
   -0.2982   -2.7211    0.0000 H   0  0  0  0  0  0  0  0  0  0  0  0
   -1.5470   -1.6626    0.0000 H   0  0  0  0  0  0  0  0  0  0  0  0
   -1.4980   -0.0264    0.0000 H   0  0  0  0  0  0  0  0  0  0  0  0
    2.6679    2.2353    0.0000 H   0  0  0  0  0  0  0  0  0  0  0  0
   -0.0908    1.7330    0.0000 N   0  0  0  0  0  0  0  0  0  0  0  0
    0.3961    2.5764    0.0000 O   0  0  0  0  0  0  0  0  0  0  0  0
   -1.0647    1.7330    0.0000 O   0  0  0  0  0  0  0  0  0  0  0  0
  1  2  2  0  0  0  0
  1 21  1  0  0  0  0
  2  3  1  0  0  0  0
  2  7  1  0  0  0  0
  3  4  2  0  0  0  0
  4  5  1  0  0  0  0
  4 22  1  0  0  0  0
  5  6  2  0  0  0  0
  5 23  1  0  0  0  0
  6  1  1  0  0  0  0
  6 24  1  0  0  0  0
  7  8  2  0  0  0  0
  7 25  1  0  0  0  0
  8  9  1  0  0  0  0
  8 26  1  0  0  0  0
  9 10  2  0  0  0  0
  9 11  1  0  0  0  0
 10  3  1  0  0  0  0
 11 12  2  0  0  0  0
 11 27  1  0  0  0  0
 12 13  1  0  0  0  0
 12 15  1  0  0  0  0
 13 14  2  0  0  0  0
 14 10  1  0  0  0  0
 15 16  2  0  0  0  0
 15 28  1  0  0  0  0
 16 17  1  0  0  0  0
 16 29  1  0  0  0  0
 17 18  2  0  0  0  0
 17 30  1  0  0  0  0
 18 13  1  0  0  0  0
 19 14  1  0  0  0  0
 19 20  2  0  0  0  0
 19 31  1  0  0  0  0
 20 18  1  0  0  0  0
 32 20  1  0  0  0  0
 32 34  2  0  0  0  0
 33 32  2  0  0  0  0
M  END
>  <activity>
Active

$$$$
mutag_d6
 OpenBabel01191712022D

 34 37  0  0  0  0  0  0  0  0999 V2000
    3.3002    2.8210    0.0000 C   0  0  0  0  0  0  0  0  0  0  0  0
    3.2932    1.8684    0.0000 C   0  0  0  0  0  0  0  0  0  0  0  0
    2.4699    1.4013    0.0000 C   0  0  0  0  0  0  0  0  0  0  0  0
    1.6536    1.8868    0.0000 C   0  0  0  0  0  0  0  0  0  0  0  0
    1.6584    2.8316    0.0000 C   0  0  0  0  0  0  0  0  0  0  0  0
    2.4817    3.2987    0.0000 C   0  0  0  0  0  0  0  0  0  0  0  0
    0.8348    1.4222    0.0000 C   0  0  0  0  0  0  0  0  0  0  0  0
    0.0118    1.8974    0.0000 C   0  0  0  0  0  0  0  0  0  0  0  0
    0.0289    2.8427    0.0000 C   0  0  0  0  0  0  0  0  0  0  0  0
    0.8477    3.3072    0.0000 C   0  0  0  0  0  0  0  0  0  0  0  0
    2.4623    0.4614    0.0000 C   0  0  0  0  0  0  0  0  0  0  0  0
    1.6435   -0.0031    0.0000 C   0  0  0  0  0  0  0  0  0  0  0  0
    0.8233    0.4671    0.0000 C   0  0  0  0  0  0  0  0  0  0  0  0
   -0.8062    0.4782    0.0000 C   0  0  0  0  0  0  0  0  0  0  0  0
   -0.8115    1.4303    0.0000 C   0  0  0  0  0  0  0  0  0  0  0  0
    0.0000   -0.0000    0.0000 C   0  0  0  0  0  0  0  0  0  0  0  0
    4.1228    3.2878    0.0000 H   0  0  0  0  0  0  0  0  0  0  0  0
   -0.7841    3.3260    0.0000 H   0  0  0  0  0  0  0  0  0  0  0  0
    0.8545    4.2530    0.0000 H   0  0  0  0  0  0  0  0  0  0  0  0
    3.2777   -0.0179    0.0000 H   0  0  0  0  0  0  0  0  0  0  0  0
    1.6414   -0.9489    0.0000 H   0  0  0  0  0  0  0  0  0  0  0  0
   -1.6268    0.0078    0.0000 H   0  0  0  0  0  0  0  0  0  0  0  0
   -0.0090   -0.9373    0.0000 N   0  0  0  0  0  0  0  0  0  0  0  0
    4.1094    1.3891    0.0000 N   0  0  0  0  0  0  0  0  0  0  0  0
   -2.0876    2.7334    0.0000 O   0  0  0  0  0  0  0  0  0  0  0  0
   -2.1204    1.0942    0.0000 O   0  0  0  0  0  0  0  0  0  0  0  0
   -0.7141   -1.5549    0.0000 O   0  0  0  0  0  0  0  0  0  0  0  0
    0.8784   -1.2391    0.0000 O   0  0  0  0  0  0  0  0  0  0  0  0
    3.6301    0.5729    0.0000 O   0  0  0  0  0  0  0  0  0  0  0  0
    5.0560    1.3821    0.0000 O   0  0  0  0  0  0  0  0  0  0  0  0
    3.3101    4.7136    0.0000 O   0  0  0  0  0  0  0  0  0  0  0  0
    1.6706    4.7236    0.0000 O   0  0  0  0  0  0  0  0  0  0  0  0
    2.4875    4.2453    0.0000 N   0  0  0  0  0  0  0  0  0  0  0  0
   -1.6308    1.9044    0.0000 N   0  0  0  0  0  0  0  0  0  0  0  0
  1  2  2  0  0  0  0
  1 17  1  0  0  0  0
  2  3  1  0  0  0  0
  3  4  2  0  0  0  0
  3 11  1  0  0  0  0
  4  5  1  0  0  0  0
  4  7  1  0  0  0  0
  5  6  2  0  0  0  0
  6  1  1  0  0  0  0
  6 33  1  0  0  0  0
  7  8  2  0  0  0  0
  8  9  1  0  0  0  0
  9 10  2  0  0  0  0
  9 18  1  0  0  0  0
 10  5  1  0  0  0  0
 10 19  1  0  0  0  0
 11 12  2  0  0  0  0
 11 20  1  0  0  0  0
 12 13  1  0  0  0  0
 12 21  1  0  0  0  0
 13  7  1  0  0  0  0
 14 15  2  0  0  0  0
 14 16  1  0  0  0  0
 14 22  1  0  0  0  0
 15  8  1  0  0  0  0
 15 34  1  0  0  0  0
 16 13  2  0  0  0  0
 23 16  1  0  0  0  0
 23 28  2  0  0  0  0
 24  2  1  0  0  0  0
 24 29  2  0  0  0  0
 24 30  2  0  0  0  0
 25 34  2  0  0  0  0
 26 34  2  0  0  0  0
 27 23  2  0  0  0  0
 31 33  2  0  0  0  0
 32 33  2  0  0  0  0
M  END
>  <activity>
Active

$$$$
mutag_d60
 OpenBabel01191712022D

 24 25  0  0  0  0  0  0  0  0999 V2000
    1.6654   -0.9615    0.0000 C   0  0  0  0  0  0  0  0  0  0  0  0
    0.8327   -1.4423    0.0000 C   0  0  0  0  0  0  0  0  0  0  0  0
   -0.0000   -0.9615    0.0000 C   0  0  0  0  0  0  0  0  0  0  0  0
    0.0000   -0.0000    0.0000 C   0  0  0  0  0  0  0  0  0  0  0  0
    0.8327    0.4808    0.0000 C   0  0  0  0  0  0  0  0  0  0  0  0
    1.6654    0.0000    0.0000 C   0  0  0  0  0  0  0  0  0  0  0  0
    2.4982   -1.4423    0.0000 H   0  0  0  0  0  0  0  0  0  0  0  0
    0.8327   -2.4038    0.0000 H   0  0  0  0  0  0  0  0  0  0  0  0
    2.4982    0.4808    0.0000 H   0  0  0  0  0  0  0  0  0  0  0  0
   -0.8327   -1.4423    0.0000 C   0  0  0  0  0  0  0  0  0  0  0  0
   -1.6654   -0.9615    0.0000 C   0  0  0  0  0  0  0  0  0  0  0  0
   -1.6654    0.0000    0.0000 C   0  0  0  0  0  0  0  0  0  0  0  0
   -0.8327    0.4808    0.0000 C   0  0  0  0  0  0  0  0  0  0  0  0
   -0.8327   -2.4038    0.0000 H   0  0  0  0  0  0  0  0  0  0  0  0
   -2.4982    0.4808    0.0000 H   0  0  0  0  0  0  0  0  0  0  0  0
   -0.8327    2.4038    0.0000 N   0  0  0  0  0  0  0  0  0  0  0  0
   -2.4982   -1.4423    0.0000 N   0  0  0  0  0  0  0  0  0  0  0  0
    0.8327    1.4423    0.0000 N   0  0  0  0  0  0  0  0  0  0  0  0
    1.6654    1.9231    0.0000 O   0  0  0  0  0  0  0  0  0  0  0  0
   -0.0000    1.9231    0.0000 O   0  0  0  0  0  0  0  0  0  0  0  0
    0.0000    2.8846    0.0000 O   0  0  0  0  0  0  0  0  0  0  0  0
   -1.6654    2.8846    0.0000 O   0  0  0  0  0  0  0  0  0  0  0  0
   -3.3309   -0.9615    0.0000 O   0  0  0  0  0  0  0  0  0  0  0  0
   -2.4982   -2.4038    0.0000 O   0  0  0  0  0  0  0  0  0  0  0  0
  1  2  2  0  0  0  0
  1  7  1  0  0  0  0
  2  3  1  0  0  0  0
  2  8  1  0  0  0  0
  3  4  2  0  0  0  0
  3 10  1  0  0  0  0
  4  5  1  0  0  0  0
  5  6  2  0  0  0  0
  6  1  1  0  0  0  0
  6  9  1  0  0  0  0
 10 11  2  0  0  0  0
 10 14  1  0  0  0  0
 11 12  1  0  0  0  0
 11 17  1  0  0  0  0
 12 13  2  0  0  0  0
 12 15  1  0  0  0  0
 13  4  1  0  0  0  0
 16 13  1  0  0  0  0
 16 22  2  0  0  0  0
 17 24  2  0  0  0  0
 18  5  1  0  0  0  0
 18 20  2  0  0  0  0
 19 18  2  0  0  0  0
 21 16  2  0  0  0  0
 23 17  2  0  0  0  0
M  END
>  <activity>
Active

$$$$
mutag_d61
 OpenBabel01191712022D

 25 27  0  0  0  0  0  0  0  0999 V2000
   -3.3200    0.0007    0.0000 C   0  0  0  0  0  0  0  0  0  0  0  0
   -2.4901    0.4796    0.0000 C   0  0  0  0  0  0  0  0  0  0  0  0
   -1.6600    0.0003    0.0000 C   0  0  0  0  0  0  0  0  0  0  0  0
   -1.6602   -0.9584    0.0000 C   0  0  0  0  0  0  0  0  0  0  0  0
   -2.4905   -1.4374    0.0000 C   0  0  0  0  0  0  0  0  0  0  0  0
   -3.3202   -0.9581    0.0000 C   0  0  0  0  0  0  0  0  0  0  0  0
   -2.4899    1.4848    0.0000 H   0  0  0  0  0  0  0  0  0  0  0  0
   -2.4907   -2.4426    0.0000 H   0  0  0  0  0  0  0  0  0  0  0  0
   -4.1908   -1.4605    0.0000 H   0  0  0  0  0  0  0  0  0  0  0  0
    0.0000   -0.0000    0.0000 C   0  0  0  0  0  0  0  0  0  0  0  0
    0.8303    0.4790    0.0000 C   0  0  0  0  0  0  0  0  0  0  0  0
    1.6600   -0.0003    0.0000 C   0  0  0  0  0  0  0  0  0  0  0  0
    1.6598   -0.9591    0.0000 C   0  0  0  0  0  0  0  0  0  0  0  0
    0.8300   -1.4380    0.0000 C   0  0  0  0  0  0  0  0  0  0  0  0
   -0.0002   -0.9587    0.0000 C   0  0  0  0  0  0  0  0  0  0  0  0
    0.8307    1.4842    0.0000 H   0  0  0  0  0  0  0  0  0  0  0  0
    2.5303   -1.4618    0.0000 H   0  0  0  0  0  0  0  0  0  0  0  0
    0.8299   -2.4433    0.0000 H   0  0  0  0  0  0  0  0  0  0  0  0
   -0.8301    0.4793    0.0000 C   0  0  0  0  0  0  0  0  0  0  0  0
   -0.8301    1.4845    0.0000 H   0  0  0  0  0  0  0  0  0  0  0  0
   -1.7007    0.9819    0.0000 H   0  0  0  0  0  0  0  0  0  0  0  0
    2.5307    0.5021    0.0000 Cl  0  0  0  0  0  0  0  0  0  0  0  0
   -4.1497    0.4799    0.0000 N   0  0  0  0  0  0  0  0  0  0  0  0
   -4.2497    1.4328    0.0000 O   0  0  0  0  0  0  0  0  0  0  0  0
   -4.9249   -0.0832    0.0000 O   0  0  0  0  0  0  0  0  0  0  0  0
  1  2  2  0  0  0  0
  1 23  1  0  0  0  0
  2  3  1  0  0  0  0
  2  7  1  0  0  0  0
  3  4  2  0  0  0  0
  3 19  1  0  0  0  0
  4  5  1  0  0  0  0
  4 15  1  0  0  0  0
  5  6  2  0  0  0  0
  5  8  1  0  0  0  0
  6  1  1  0  0  0  0
  6  9  1  0  0  0  0
 10 11  2  0  0  0  0
 11 12  1  0  0  0  0
 11 16  1  0  0  0  0
 12 13  2  0  0  0  0
 12 22  1  0  0  0  0
 13 14  1  0  0  0  0
 13 17  1  0  0  0  0
 14 15  2  0  0  0  0
 14 18  1  0  0  0  0
 15 10  1  0  0  0  0
 19 10  1  0  0  0  0
 19 20  1  0  0  0  0
 19 21  1  0  0  0  0
 23 25  2  0  0  0  0
 24 23  2  0  0  0  0
M  END
>  <activity>
Active

$$$$
mutag_d62
 OpenBabel01191712022D

 17 17  0  0  0  0  0  0  0  0999 V2000
   -0.0000   -0.0000    0.0000 C   0  0  0  0  0  0  0  0  0  0  0  0
   -0.8660    0.5000    0.0000 C   0  0  0  0  0  0  0  0  0  0  0  0
   -0.8660    1.5000    0.0000 C   0  0  0  0  0  0  0  0  0  0  0  0
   -0.0000    2.0000    0.0000 C   0  0  0  0  0  0  0  0  0  0  0  0
    0.8660    1.5000    0.0000 C   0  0  0  0  0  0  0  0  0  0  0  0
    0.8660    0.5000    0.0000 C   0  0  0  0  0  0  0  0  0  0  0  0
   -1.7321   -0.0000    0.0000 H   0  0  0  0  0  0  0  0  0  0  0  0
   -1.7321    2.0000    0.0000 H   0  0  0  0  0  0  0  0  0  0  0  0
    1.7321    0.0000    0.0000 H   0  0  0  0  0  0  0  0  0  0  0  0
    1.7321    2.0000    0.0000 O   0  0  0  0  0  0  0  0  0  0  0  0
    1.7321    3.0000    0.0000 H   0  0  0  0  0  0  0  0  0  0  0  0
   -0.0000    3.0000    0.0000 N   0  0  0  0  0  0  0  0  0  0  0  0
   -0.0000   -1.0000    0.0000 N   0  0  0  0  0  0  0  0  0  0  0  0
   -0.8660   -1.5000    0.0000 O   0  0  0  0  0  0  0  0  0  0  0  0
    0.8660   -1.5000    0.0000 O   0  0  0  0  0  0  0  0  0  0  0  0
    0.8660    3.5000    0.0000 H   0  0  0  0  0  0  0  0  0  0  0  0
   -0.8660    3.5000    0.0000 H   0  0  0  0  0  0  0  0  0  0  0  0
  1  2  2  0  0  0  0
  1 13  1  0  0  0  0
  2  3  1  0  0  0  0
  2  7  1  0  0  0  0
  3  4  2  0  0  0  0
  3  8  1  0  0  0  0
  4  5  1  0  0  0  0
  4 12  1  0  0  0  0
  5  6  2  0  0  0  0
  6  1  1  0  0  0  0
  6  9  1  0  0  0  0
 10  5  1  0  0  0  0
 10 11  1  0  0  0  0
 12 16  1  0  0  0  0
 12 17  1  0  0  0  0
 13 15  2  0  0  0  0
 14 13  2  0  0  0  0
M  END
>  <activity>
Inactive

$$$$
mutag_d63
 OpenBabel01191712022D

 37 38  0  0  0  0  0  0  0  0999 V2000
    6.2656   -0.4550    0.0000 C   0  0  0  0  0  0  0  0  0  0  0  0
    6.6723   -1.3685    0.0000 C   0  0  0  0  0  0  0  0  0  0  0  0
    5.9292   -2.0377    0.0000 C   0  0  0  0  0  0  0  0  0  0  0  0
    5.0632   -1.5377    0.0000 C   0  0  0  0  0  0  0  0  0  0  0  0
    5.2711   -0.5595    0.0000 O   0  0  0  0  0  0  0  0  0  0  0  0
    6.7656    0.4110    0.0000 N   0  0  0  0  0  0  0  0  0  0  0  0
    7.7656    0.4110    0.0000 O   0  0  0  0  0  0  0  0  0  0  0  0
    6.2656    1.2771    0.0000 O   0  0  0  0  0  0  0  0  0  0  0  0
    4.1496   -1.9444    0.0000 C   0  0  0  0  0  0  0  0  0  0  0  0
    3.3406   -1.3566    0.0000 N   0  0  0  0  0  0  0  0  0  0  0  0
    3.4451   -0.3621    0.0000 N   0  0  0  0  0  0  0  0  0  0  0  0
    2.6361    0.2257    0.0000 C   0  0  0  0  0  0  0  0  0  0  0  0
    1.7226   -0.1810    0.0000 C   0  0  0  0  0  0  0  0  0  0  0  0
    2.7406    1.2202    0.0000 O   0  0  0  0  0  0  0  0  0  0  0  0
    0.9135    0.4067    0.0000 C   0  0  0  0  0  0  0  0  0  0  0  0
    0.0000   -0.0000    0.0000 C   0  0  3  0  0  0  0  0  0  0  0  0
   -0.8660    0.5000    0.0000 C   0  0  0  0  0  0  0  0  0  0  0  0
   -1.6092   -0.1691    0.0000 C   0  0  0  0  0  0  0  0  0  0  0  0
   -1.2024   -1.0827    0.0000 C   0  0  3  0  0  0  0  0  0  0  0  0
   -0.2079   -0.9781    0.0000 C   0  0  0  0  0  0  0  0  0  0  0  0
   -1.7024   -1.9487    0.0000 N   0  0  0  0  0  0  0  0  0  0  0  0
   -1.2024   -2.8147    0.0000 O   0  0  0  0  0  0  0  0  0  0  0  0
   -2.7024   -1.9487    0.0000 O   0  0  0  0  0  0  0  0  0  0  0  0
    7.6505   -1.5764    0.0000 H   0  0  0  0  0  0  0  0  0  0  0  0
    6.0337   -3.0322    0.0000 H   0  0  0  0  0  0  0  0  0  0  0  0
    4.0451   -2.9389    0.0000 H   0  0  0  0  0  0  0  0  0  0  0  0
    4.3587    0.0446    0.0000 H   0  0  0  0  0  0  0  0  0  0  0  0
    1.6180   -1.1756    0.0000 H   0  0  0  0  0  0  0  0  0  0  0  0
   -0.9706    1.4945    0.0000 H   0  0  0  0  0  0  0  0  0  0  0  0
   -2.5873    0.0388    0.0000 H   0  0  0  0  0  0  0  0  0  0  0  0
    0.4612   -1.7213    0.0000 H   0  0  0  0  0  0  0  0  0  0  0  0
    1.0181    1.4013    0.0000 H   0  0  0  0  0  0  0  0  0  0  0  0
   -0.9775   -0.4352    0.0000 H   0  0  0  0  0  0  0  0  0  0  0  0
   -1.8650    0.8835    0.0000 H   0  0  0  0  0  0  0  0  0  0  0  0
   -2.2825   -1.0007    0.0000 H   0  0  0  0  0  0  0  0  0  0  0  0
   -0.6674   -0.1560    0.0000 H   0  0  0  0  0  0  0  0  0  0  0  0
    0.8256   -0.7012    0.0000 H   0  0  0  0  0  0  0  0  0  0  0  0
  1  2  2  0  0  0  0
  1  6  1  0  0  0  0
  2  3  1  0  0  0  0
  2 24  1  0  0  0  0
  3  4  2  0  0  0  0
  3 25  1  0  0  0  0
  4  5  1  0  0  0  0
  4  9  1  0  0  0  0
  5  1  1  0  0  0  0
  6  7  2  0  0  0  0
  6  8  2  0  0  0  0
  9 10  2  3  0  0  0
  9 26  1  0  0  0  0
 10 11  1  0  0  0  0
 11 12  1  0  0  0  0
 11 27  1  0  0  0  0
 12 13  1  0  0  0  0
 12 14  2  0  0  0  0
 13 15  2  3  0  0  0
 13 28  1  0  0  0  0
 15 16  1  0  0  0  0
 15 32  1  0  0  0  0
 16 17  1  0  0  0  0
 16 33  1  0  0  0  0
 17 18  1  0  0  0  0
 17 29  1  0  0  0  0
 17 34  1  0  0  0  0
 18 19  1  0  0  0  0
 18 30  1  0  0  0  0
 18 35  1  0  0  0  0
 19 20  1  0  0  0  0
 19 21  1  0  0  0  0
 19 36  1  0  0  0  0
 20 16  1  0  0  0  0
 20 31  1  0  0  0  0
 20 37  1  0  0  0  0
 21 22  2  0  0  0  0
 21 23  2  0  0  0  0
M  END
>  <activity>
Active

$$$$
mutag_d64
 OpenBabel01191712022D

 26 28  0  0  0  0  0  0  0  0999 V2000
    3.3374   -0.0007    0.0000 C   0  0  0  0  0  0  0  0  0  0  0  0
    2.5032   -0.4821    0.0000 C   0  0  0  0  0  0  0  0  0  0  0  0
    1.6687   -0.0003    0.0000 C   0  0  0  0  0  0  0  0  0  0  0  0
    1.6689    0.9634    0.0000 C   0  0  0  0  0  0  0  0  0  0  0  0
    2.5036    1.4449    0.0000 C   0  0  0  0  0  0  0  0  0  0  0  0
    3.3376    0.9631    0.0000 C   0  0  0  0  0  0  0  0  0  0  0  0
    2.5030   -1.4927    0.0000 H   0  0  0  0  0  0  0  0  0  0  0  0
    2.5038    2.4554    0.0000 H   0  0  0  0  0  0  0  0  0  0  0  0
    4.2129    1.4682    0.0000 H   0  0  0  0  0  0  0  0  0  0  0  0
    0.0000    0.0000    0.0000 C   0  0  0  0  0  0  0  0  0  0  0  0
   -0.8347   -0.4815    0.0000 C   0  0  0  0  0  0  0  0  0  0  0  0
   -1.6687    0.0003    0.0000 C   0  0  0  0  0  0  0  0  0  0  0  0
   -1.6685    0.9641    0.0000 C   0  0  0  0  0  0  0  0  0  0  0  0
   -0.8343    1.4456    0.0000 C   0  0  0  0  0  0  0  0  0  0  0  0
    0.0002    0.9638    0.0000 C   0  0  0  0  0  0  0  0  0  0  0  0
   -0.8350   -1.4920    0.0000 H   0  0  0  0  0  0  0  0  0  0  0  0
   -2.5436    1.4695    0.0000 H   0  0  0  0  0  0  0  0  0  0  0  0
   -0.8343    2.4561    0.0000 H   0  0  0  0  0  0  0  0  0  0  0  0
    0.8345   -0.4818    0.0000 C   0  0  0  0  0  0  0  0  0  0  0  0
   -2.5030   -0.4811    0.0000 N   0  0  0  0  0  0  0  0  0  0  0  0
    4.1715   -0.4824    0.0000 N   0  0  0  0  0  0  0  0  0  0  0  0
    4.2719   -1.4404    0.0000 O   0  0  0  0  0  0  0  0  0  0  0  0
    4.9508    0.0835    0.0000 O   0  0  0  0  0  0  0  0  0  0  0  0
   -3.4189   -0.1832    0.0000 O   0  0  0  0  0  0  0  0  0  0  0  0
   -2.3029   -1.4232    0.0000 O   0  0  0  0  0  0  0  0  0  0  0  0
    0.8344   -1.4818    0.0000 O   0  0  0  0  0  0  0  0  0  0  0  0
  1  2  2  0  0  0  0
  1 21  1  0  0  0  0
  2  3  1  0  0  0  0
  2  7  1  0  0  0  0
  3  4  2  0  0  0  0
  3 19  1  0  0  0  0
  4  5  1  0  0  0  0
  4 15  1  0  0  0  0
  5  6  2  0  0  0  0
  5  8  1  0  0  0  0
  6  1  1  0  0  0  0
  6  9  1  0  0  0  0
 10 11  2  0  0  0  0
 11 12  1  0  0  0  0
 11 16  1  0  0  0  0
 12 13  2  0  0  0  0
 12 20  1  0  0  0  0
 13 14  1  0  0  0  0
 13 17  1  0  0  0  0
 14 15  2  0  0  0  0
 14 18  1  0  0  0  0
 15 10  1  0  0  0  0
 19 10  1  0  0  0  0
 19 26  2  0  0  0  0
 20 24  2  0  0  0  0
 20 25  2  0  0  0  0
 21 23  2  0  0  0  0
 22 21  2  0  0  0  0
M  END
>  <activity>
Active

$$$$
mutag_d65
 OpenBabel01191712022D

 22 23  0  0  0  0  0  0  0  0999 V2000
    1.7321   -1.0000    0.0000 C   0  0  0  0  0  0  0  0  0  0  0  0
    0.8660   -1.5000    0.0000 C   0  0  0  0  0  0  0  0  0  0  0  0
    0.0000   -1.0000    0.0000 C   0  0  0  0  0  0  0  0  0  0  0  0
    0.0000   -0.0000    0.0000 C   0  0  0  0  0  0  0  0  0  0  0  0
    0.8660    0.5000    0.0000 C   0  0  0  0  0  0  0  0  0  0  0  0
    1.7321    0.0000    0.0000 C   0  0  0  0  0  0  0  0  0  0  0  0
    2.5981   -1.5000    0.0000 H   0  0  0  0  0  0  0  0  0  0  0  0
    0.8660   -2.5000    0.0000 H   0  0  0  0  0  0  0  0  0  0  0  0
    0.8660    1.5000    0.0000 H   0  0  0  0  0  0  0  0  0  0  0  0
    2.5981    0.5000    0.0000 H   0  0  0  0  0  0  0  0  0  0  0  0
   -0.8660   -1.5000    0.0000 C   0  0  0  0  0  0  0  0  0  0  0  0
   -1.7321   -1.0000    0.0000 C   0  0  0  0  0  0  0  0  0  0  0  0
   -1.7321   -0.0000    0.0000 C   0  0  0  0  0  0  0  0  0  0  0  0
   -0.8660    0.5000    0.0000 C   0  0  0  0  0  0  0  0  0  0  0  0
   -0.8660   -2.5000    0.0000 H   0  0  0  0  0  0  0  0  0  0  0  0
   -2.5981    0.5000    0.0000 H   0  0  0  0  0  0  0  0  0  0  0  0
   -0.8660    1.5000    0.0000 N   0  0  0  0  0  0  0  0  0  0  0  0
   -2.5981   -1.5000    0.0000 N   0  0  0  0  0  0  0  0  0  0  0  0
   -0.0000    2.0000    0.0000 O   0  0  0  0  0  0  0  0  0  0  0  0
   -1.7321    2.0000    0.0000 O   0  0  0  0  0  0  0  0  0  0  0  0
   -3.4641   -1.0000    0.0000 O   0  0  0  0  0  0  0  0  0  0  0  0
   -2.5981   -2.5000    0.0000 O   0  0  0  0  0  0  0  0  0  0  0  0
  1  2  2  0  0  0  0
  1  7  1  0  0  0  0
  2  3  1  0  0  0  0
  2  8  1  0  0  0  0
  3  4  2  0  0  0  0
  3 11  1  0  0  0  0
  4  5  1  0  0  0  0
  5  6  2  0  0  0  0
  5  9  1  0  0  0  0
  6  1  1  0  0  0  0
  6 10  1  0  0  0  0
 11 12  2  0  0  0  0
 11 15  1  0  0  0  0
 12 13  1  0  0  0  0
 12 18  1  0  0  0  0
 13 14  2  0  0  0  0
 13 16  1  0  0  0  0
 14  4  1  0  0  0  0
 17 14  1  0  0  0  0
 17 20  2  0  0  0  0
 18 22  2  0  0  0  0
 19 17  2  0  0  0  0
 21 18  2  0  0  0  0
M  END
>  <activity>
Inactive

$$$$
mutag_d66
 OpenBabel01191712022D

 26 27  0  0  0  0  0  0  0  0999 V2000
    2.5981    1.5000    0.0000 C   0  0  0  0  0  0  0  0  0  0  0  0
    2.5981    0.5000    0.0000 C   0  0  0  0  0  0  0  0  0  0  0  0
    1.7321   -0.0000    0.0000 C   0  0  0  0  0  0  0  0  0  0  0  0
    0.8660    0.5000    0.0000 C   0  0  0  0  0  0  0  0  0  0  0  0
    0.8660    1.5000    0.0000 C   0  0  0  0  0  0  0  0  0  0  0  0
    1.7321    2.0000    0.0000 C   0  0  0  0  0  0  0  0  0  0  0  0
    3.4641    2.0000    0.0000 H   0  0  0  0  0  0  0  0  0  0  0  0
    3.4641   -0.0000    0.0000 H   0  0  0  0  0  0  0  0  0  0  0  0
    1.7321   -1.0000    0.0000 H   0  0  0  0  0  0  0  0  0  0  0  0
    0.0000    2.0000    0.0000 H   0  0  0  0  0  0  0  0  0  0  0  0
    0.0000   -0.0000    0.0000 C   0  0  0  0  0  0  0  0  0  0  0  0
   -0.0000   -1.0000    0.0000 C   0  0  0  0  0  0  0  0  0  0  0  0
   -0.8660   -1.5000    0.0000 C   0  0  0  0  0  0  0  0  0  0  0  0
   -1.7321   -1.0000    0.0000 C   0  0  0  0  0  0  0  0  0  0  0  0
   -1.7321    0.0000    0.0000 C   0  0  0  0  0  0  0  0  0  0  0  0
   -0.8660    0.5000    0.0000 C   0  0  0  0  0  0  0  0  0  0  0  0
    0.8660   -1.5000    0.0000 H   0  0  0  0  0  0  0  0  0  0  0  0
   -0.8660   -2.5000    0.0000 H   0  0  0  0  0  0  0  0  0  0  0  0
   -2.5981    0.5000    0.0000 H   0  0  0  0  0  0  0  0  0  0  0  0
   -0.8660    1.5000    0.0000 H   0  0  0  0  0  0  0  0  0  0  0  0
   -2.5981   -1.5000    0.0000 N   0  0  0  0  0  0  0  0  0  0  0  0
    1.7321    3.0000    0.0000 N   0  0  0  0  0  0  0  0  0  0  0  0
    2.5981    3.5000    0.0000 O   0  0  0  0  0  0  0  0  0  0  0  0
    0.8660    3.5000    0.0000 O   0  0  0  0  0  0  0  0  0  0  0  0
   -3.4641   -1.0000    0.0000 H   0  0  0  0  0  0  0  0  0  0  0  0
   -2.5981   -2.5000    0.0000 H   0  0  0  0  0  0  0  0  0  0  0  0
  1  2  2  0  0  0  0
  1  7  1  0  0  0  0
  2  3  1  0  0  0  0
  2  8  1  0  0  0  0
  3  4  2  0  0  0  0
  3  9  1  0  0  0  0
  4  5  1  0  0  0  0
  4 11  1  0  0  0  0
  5  6  2  0  0  0  0
  5 10  1  0  0  0  0
  6  1  1  0  0  0  0
  6 22  1  0  0  0  0
 11 12  2  0  0  0  0
 12 13  1  0  0  0  0
 12 17  1  0  0  0  0
 13 14  2  0  0  0  0
 13 18  1  0  0  0  0
 14 15  1  0  0  0  0
 14 21  1  0  0  0  0
 15 16  2  0  0  0  0
 15 19  1  0  0  0  0
 16 11  1  0  0  0  0
 16 20  1  0  0  0  0
 21 25  1  0  0  0  0
 21 26  1  0  0  0  0
 22 24  2  0  0  0  0
 23 22  2  0  0  0  0
M  END
>  <activity>
Inactive

$$$$
mutag_d67
 OpenBabel01191712022D

 29 32  0  0  0  0  0  0  0  0999 V2000
   -1.6392   -2.8380    0.0000 C   0  0  0  0  0  0  0  0  0  0  0  0
   -2.4587   -2.3648    0.0000 C   0  0  0  0  0  0  0  0  0  0  0  0
   -2.4585   -1.4189    0.0000 C   0  0  0  0  0  0  0  0  0  0  0  0
   -1.6389   -0.9461    0.0000 C   0  0  0  0  0  0  0  0  0  0  0  0
   -0.8199   -1.4192    0.0000 C   0  0  0  0  0  0  0  0  0  0  0  0
   -0.8200   -2.3652    0.0000 C   0  0  0  0  0  0  0  0  0  0  0  0
   -1.6394   -3.8205    0.0000 H   0  0  0  0  0  0  0  0  0  0  0  0
   -3.3097   -2.8560    0.0000 H   0  0  0  0  0  0  0  0  0  0  0  0
    0.0308   -2.8566    0.0000 H   0  0  0  0  0  0  0  0  0  0  0  0
   -3.2775   -0.9458    0.0000 C   0  0  0  0  0  0  0  0  0  0  0  0
   -3.2773    0.0007    0.0000 C   0  0  0  0  0  0  0  0  0  0  0  0
   -2.4581    0.4735    0.0000 C   0  0  0  0  0  0  0  0  0  0  0  0
   -1.6387    0.0003    0.0000 C   0  0  0  0  0  0  0  0  0  0  0  0
   -4.1286   -1.4369    0.0000 H   0  0  0  0  0  0  0  0  0  0  0  0
   -0.0002   -0.9464    0.0000 C   0  0  0  0  0  0  0  0  0  0  0  0
    0.0000   -0.0000    0.0000 C   0  0  0  0  0  0  0  0  0  0  0  0
    0.8197    0.4728    0.0000 C   0  0  0  0  0  0  0  0  0  0  0  0
    1.6387   -0.0003    0.0000 C   0  0  0  0  0  0  0  0  0  0  0  0
    1.6385   -0.9467    0.0000 C   0  0  0  0  0  0  0  0  0  0  0  0
    0.8193   -1.4196    0.0000 C   0  0  0  0  0  0  0  0  0  0  0  0
    2.4897    0.4908    0.0000 H   0  0  0  0  0  0  0  0  0  0  0  0
    2.4893   -1.4382    0.0000 H   0  0  0  0  0  0  0  0  0  0  0  0
    0.8192   -2.4021    0.0000 H   0  0  0  0  0  0  0  0  0  0  0  0
   -2.4581    1.4193    0.0000 N   0  0  0  0  0  0  0  0  0  0  0  0
   -4.0964    0.4736    0.0000 O   0  0  0  0  0  0  0  0  0  0  0  0
   -1.6687    1.9403    0.0000 O   0  0  0  0  0  0  0  0  0  0  0  0
   -3.3040    1.8424    0.0000 O   0  0  0  0  0  0  0  0  0  0  0  0
   -4.7993   -0.1592    0.0000 H   0  0  0  0  0  0  0  0  0  0  0  0
    0.8197    1.4494    0.0000 H   0  0  0  0  0  0  0  0  0  0  0  0
  1  2  2  0  0  0  0
  1  7  1  0  0  0  0
  2  3  1  0  0  0  0
  2  8  1  0  0  0  0
  3  4  2  0  0  0  0
  3 10  1  0  0  0  0
  4  5  1  0  0  0  0
  5  6  2  0  0  0  0
  6  1  1  0  0  0  0
  6  9  1  0  0  0  0
 10 11  2  0  0  0  0
 10 14  1  0  0  0  0
 11 12  1  0  0  0  0
 11 25  1  0  0  0  0
 12 13  2  0  0  0  0
 12 24  1  0  0  0  0
 13  4  1  0  0  0  0
 13 16  1  0  0  0  0
 15 16  2  0  0  0  0
 15  5  1  0  0  0  0
 16 17  1  0  0  0  0
 17 18  2  0  0  0  0
 17 29  1  0  0  0  0
 18 19  1  0  0  0  0
 18 21  1  0  0  0  0
 19 20  2  0  0  0  0
 19 22  1  0  0  0  0
 20 15  1  0  0  0  0
 20 23  1  0  0  0  0
 24 27  2  0  0  0  0
 25 28  1  0  0  0  0
 26 24  2  0  0  0  0
M  END
>  <activity>
Active

$$$$
mutag_d68
 OpenBabel01191712022D

 34 38  0  0  0  0  0  0  0  0999 V2000
   -4.1090    2.3662    0.0000 C   0  0  0  0  0  0  0  0  0  0  0  0
   -3.2885    2.8430    0.0000 C   0  0  0  0  0  0  0  0  0  0  0  0
   -2.4653    2.3708    0.0000 C   0  0  0  0  0  0  0  0  0  0  0  0
   -2.4627    1.4218    0.0000 C   0  0  0  0  0  0  0  0  0  0  0  0
   -3.2832    0.9450    0.0000 C   0  0  0  0  0  0  0  0  0  0  0  0
   -4.1063    1.4172    0.0000 C   0  0  0  0  0  0  0  0  0  0  0  0
   -4.9305    2.8375    0.0000 H   0  0  0  0  0  0  0  0  0  0  0  0
   -3.2911    3.7901    0.0000 H   0  0  0  0  0  0  0  0  0  0  0  0
   -3.2805   -0.0021    0.0000 H   0  0  0  0  0  0  0  0  0  0  0  0
   -4.9253    0.9414    0.0000 H   0  0  0  0  0  0  0  0  0  0  0  0
   -1.6393    2.8479    0.0000 C   0  0  0  0  0  0  0  0  0  0  0  0
   -0.8184    2.3740    0.0000 C   0  0  0  0  0  0  0  0  0  0  0  0
   -0.8235    1.4229    0.0000 C   0  0  0  0  0  0  0  0  0  0  0  0
   -1.6418    0.9479    0.0000 C   0  0  0  0  0  0  0  0  0  0  0  0
   -1.6394    3.7954    0.0000 H   0  0  0  0  0  0  0  0  0  0  0  0
   -0.0030    2.8441    0.0000 C   0  0  0  0  0  0  0  0  0  0  0  0
    0.8134    2.3728    0.0000 C   0  0  0  0  0  0  0  0  0  0  0  0
    0.8234    1.4261    0.0000 C   0  0  0  0  0  0  0  0  0  0  0  0
   -0.0072    0.9516    0.0000 C   0  0  0  0  0  0  0  0  0  0  0  0
   -0.0031    3.7916    0.0000 H   0  0  0  0  0  0  0  0  0  0  0  0
    1.6314    2.8508    0.0000 H   0  0  0  0  0  0  0  0  0  0  0  0
    0.0000    0.0000    0.0000 C   0  0  0  0  0  0  0  0  0  0  0  0
   -0.8248   -0.4647    0.0000 C   0  0  0  0  0  0  0  0  0  0  0  0
   -1.6412    0.0067    0.0000 C   0  0  0  0  0  0  0  0  0  0  0  0
   -0.8298   -1.4121    0.0000 H   0  0  0  0  0  0  0  0  0  0  0  0
   -2.4616   -0.4673    0.0000 H   0  0  0  0  0  0  0  0  0  0  0  0
    1.6442    0.9522    0.0000 C   0  0  0  0  0  0  0  0  0  0  0  0
    1.6403    0.0135    0.0000 C   0  0  0  0  0  0  0  0  0  0  0  0
    0.8209   -0.4739    0.0000 C   0  0  0  0  0  0  0  0  0  0  0  0
    2.4629   -0.4565    0.0000 H   0  0  0  0  0  0  0  0  0  0  0  0
    0.8271   -1.4214    0.0000 H   0  0  0  0  0  0  0  0  0  0  0  0
    2.4581    1.4198    0.0000 N   0  0  0  0  0  0  0  0  0  0  0  0
    3.3490    1.1242    0.0000 O   0  0  0  0  0  0  0  0  0  0  0  0
    2.2686    2.3390    0.0000 O   0  0  0  0  0  0  0  0  0  0  0  0
  1  2  2  0  0  0  0
  1  7  1  0  0  0  0
  2  3  1  0  0  0  0
  2  8  1  0  0  0  0
  3  4  2  0  0  0  0
  3 11  1  0  0  0  0
  4  5  1  0  0  0  0
  5  6  2  0  0  0  0
  5  9  1  0  0  0  0
  6  1  1  0  0  0  0
  6 10  1  0  0  0  0
 11 12  2  0  0  0  0
 11 15  1  0  0  0  0
 12 13  1  0  0  0  0
 12 16  1  0  0  0  0
 13 14  2  0  0  0  0
 14  4  1  0  0  0  0
 16 17  2  0  0  0  0
 16 20  1  0  0  0  0
 17 18  1  0  0  0  0
 17 21  1  0  0  0  0
 18 19  2  0  0  0  0
 18 27  1  0  0  0  0
 19 13  1  0  0  0  0
 19 22  1  0  0  0  0
 22 23  1  0  0  0  0
 23 24  2  0  0  0  0
 23 25  1  0  0  0  0
 24 14  1  0  0  0  0
 24 26  1  0  0  0  0
 27 28  2  0  0  0  0
 27 32  1  0  0  0  0
 28 29  1  0  0  0  0
 28 30  1  0  0  0  0
 29 22  2  0  0  0  0
 29 31  1  0  0  0  0
 32 33  2  0  0  0  0
 32 34  2  0  0  0  0
M  END
>  <activity>
Active

$$$$
mutag_d69
 OpenBabel01191712022D

 27 29  0  0  0  0  0  0  0  0999 V2000
   -3.3350    0.0007    0.0000 C   0  0  0  0  0  0  0  0  0  0  0  0
   -2.5014    0.4818    0.0000 C   0  0  0  0  0  0  0  0  0  0  0  0
   -1.6675    0.0003    0.0000 C   0  0  0  0  0  0  0  0  0  0  0  0
   -1.6677   -0.9627    0.0000 C   0  0  0  0  0  0  0  0  0  0  0  0
   -2.5018   -1.4439    0.0000 C   0  0  0  0  0  0  0  0  0  0  0  0
   -3.3352   -0.9624    0.0000 C   0  0  0  0  0  0  0  0  0  0  0  0
   -4.2094    0.5057    0.0000 H   0  0  0  0  0  0  0  0  0  0  0  0
   -2.5013    1.4916    0.0000 H   0  0  0  0  0  0  0  0  0  0  0  0
   -4.2098   -1.4671    0.0000 H   0  0  0  0  0  0  0  0  0  0  0  0
   -0.0000   -0.0000    0.0000 C   0  0  0  0  0  0  0  0  0  0  0  0
    0.8341    0.4811    0.0000 C   0  0  0  0  0  0  0  0  0  0  0  0
    1.6675   -0.0003    0.0000 C   0  0  0  0  0  0  0  0  0  0  0  0
    1.6673   -0.9634    0.0000 C   0  0  0  0  0  0  0  0  0  0  0  0
    0.8337   -1.4445    0.0000 C   0  0  0  0  0  0  0  0  0  0  0  0
   -0.0002   -0.9631    0.0000 C   0  0  0  0  0  0  0  0  0  0  0  0
    0.8344    1.4909    0.0000 H   0  0  0  0  0  0  0  0  0  0  0  0
    2.5417   -1.4685    0.0000 H   0  0  0  0  0  0  0  0  0  0  0  0
    0.8336   -2.4543    0.0000 H   0  0  0  0  0  0  0  0  0  0  0  0
   -0.8339    0.4815    0.0000 C   0  0  0  0  0  0  0  0  0  0  0  0
   -0.8338    1.4912    0.0000 H   0  0  0  0  0  0  0  0  0  0  0  0
    0.0407    0.9862    0.0000 H   0  0  0  0  0  0  0  0  0  0  0  0
    2.5011    0.4808    0.0000 N   0  0  0  0  0  0  0  0  0  0  0  0
   -2.5021   -2.4064    0.0000 N   0  0  0  0  0  0  0  0  0  0  0  0
   -3.4594   -2.5066    0.0000 O   0  0  0  0  0  0  0  0  0  0  0  0
   -1.9366   -3.1852    0.0000 O   0  0  0  0  0  0  0  0  0  0  0  0
    3.4164    0.1832    0.0000 O   0  0  0  0  0  0  0  0  0  0  0  0
    2.3011    1.4223    0.0000 O   0  0  0  0  0  0  0  0  0  0  0  0
  1  2  2  0  0  0  0
  1  7  1  0  0  0  0
  2  3  1  0  0  0  0
  2  8  1  0  0  0  0
  3  4  2  0  0  0  0
  3 19  1  0  0  0  0
  4  5  1  0  0  0  0
  4 15  1  0  0  0  0
  5  6  2  0  0  0  0
  5 23  1  0  0  0  0
  6  1  1  0  0  0  0
  6  9  1  0  0  0  0
 10 11  2  0  0  0  0
 11 12  1  0  0  0  0
 11 16  1  0  0  0  0
 12 13  2  0  0  0  0
 12 22  1  0  0  0  0
 13 14  1  0  0  0  0
 13 17  1  0  0  0  0
 14 15  2  0  0  0  0
 14 18  1  0  0  0  0
 15 10  1  0  0  0  0
 19 10  1  0  0  0  0
 19 20  1  0  0  0  0
 19 21  1  0  0  0  0
 22 27  2  0  0  0  0
 23 25  2  0  0  0  0
 24 23  2  0  0  0  0
 26 22  2  0  0  0  0
M  END
>  <activity>
Active

$$$$
mutag_d7
 OpenBabel01191712022D

 27 28  0  0  0  0  0  0  0  0999 V2000
   -2.5981   -1.5000    0.0000 C   0  0  0  0  0  0  0  0  0  0  0  0
   -2.5981   -0.5000    0.0000 C   0  0  0  0  0  0  0  0  0  0  0  0
   -1.7321    0.0000    0.0000 C   0  0  0  0  0  0  0  0  0  0  0  0
   -0.8660   -0.5000    0.0000 C   0  0  0  0  0  0  0  0  0  0  0  0
   -0.8660   -1.5000    0.0000 C   0  0  0  0  0  0  0  0  0  0  0  0
   -1.7321   -2.0000    0.0000 C   0  0  0  0  0  0  0  0  0  0  0  0
   -3.4641   -2.0000    0.0000 H   0  0  0  0  0  0  0  0  0  0  0  0
   -3.4641   -0.0000    0.0000 H   0  0  0  0  0  0  0  0  0  0  0  0
   -1.7321    1.0000    0.0000 H   0  0  0  0  0  0  0  0  0  0  0  0
    0.0000   -2.0000    0.0000 H   0  0  0  0  0  0  0  0  0  0  0  0
   -1.7321   -3.0000    0.0000 H   0  0  0  0  0  0  0  0  0  0  0  0
    0.0000    0.0000    0.0000 C   0  0  0  0  0  0  0  0  0  0  0  0
    0.0000    1.0000    0.0000 C   0  0  0  0  0  0  0  0  0  0  0  0
    0.8660    1.5000    0.0000 C   0  0  0  0  0  0  0  0  0  0  0  0
    1.7321    1.0000    0.0000 C   0  0  0  0  0  0  0  0  0  0  0  0
    1.7321   -0.0000    0.0000 C   0  0  0  0  0  0  0  0  0  0  0  0
    0.8660   -0.5000    0.0000 C   0  0  0  0  0  0  0  0  0  0  0  0
   -0.8660    1.5000    0.0000 H   0  0  0  0  0  0  0  0  0  0  0  0
    0.8660    2.5000    0.0000 H   0  0  0  0  0  0  0  0  0  0  0  0
    0.8660   -1.5000    0.0000 H   0  0  0  0  0  0  0  0  0  0  0  0
    2.5981   -0.5000    0.0000 C   0  0  0  0  0  0  0  0  0  0  0  0
    3.5981   -0.5000    0.0000 H   0  0  0  0  0  0  0  0  0  0  0  0
    3.0981    0.3660    0.0000 H   0  0  0  0  0  0  0  0  0  0  0  0
    2.5981   -1.5000    0.0000 H   0  0  0  0  0  0  0  0  0  0  0  0
    2.5981    1.5000    0.0000 N   0  0  0  0  0  0  0  0  0  0  0  0
    3.4641    1.0000    0.0000 O   0  0  0  0  0  0  0  0  0  0  0  0
    2.5981    2.5000    0.0000 O   0  0  0  0  0  0  0  0  0  0  0  0
  1  2  2  0  0  0  0
  1  7  1  0  0  0  0
  2  3  1  0  0  0  0
  2  8  1  0  0  0  0
  3  4  2  0  0  0  0
  3  9  1  0  0  0  0
  4  5  1  0  0  0  0
  4 12  1  0  0  0  0
  5  6  2  0  0  0  0
  5 10  1  0  0  0  0
  6  1  1  0  0  0  0
  6 11  1  0  0  0  0
 12 13  2  0  0  0  0
 13 14  1  0  0  0  0
 13 18  1  0  0  0  0
 14 15  2  0  0  0  0
 14 19  1  0  0  0  0
 15 16  1  0  0  0  0
 16 17  2  0  0  0  0
 17 12  1  0  0  0  0
 17 20  1  0  0  0  0
 21 16  1  0  0  0  0
 21 22  1  0  0  0  0
 21 23  1  0  0  0  0
 21 24  1  0  0  0  0
 25 15  1  0  0  0  0
 25 26  2  0  0  0  0
 25 27  2  0  0  0  0
M  END
>  <activity>
Inactive

$$$$
mutag_d70
 OpenBabel01191712022D

 18 19  0  0  0  0  0  0  0  0999 V2000
   -1.7321   -1.0000    0.0000 C   0  0  0  0  0  0  0  0  0  0  0  0
   -0.8660   -1.5000    0.0000 C   0  0  0  0  0  0  0  0  0  0  0  0
    0.0000   -1.0000    0.0000 C   0  0  0  0  0  0  0  0  0  0  0  0
    0.0000    0.0000    0.0000 C   0  0  0  0  0  0  0  0  0  0  0  0
   -0.8660    0.5000    0.0000 C   0  0  0  0  0  0  0  0  0  0  0  0
   -1.7321    0.0000    0.0000 C   0  0  0  0  0  0  0  0  0  0  0  0
   -2.5981   -1.5000    0.0000 H   0  0  0  0  0  0  0  0  0  0  0  0
   -0.8660   -2.5000    0.0000 H   0  0  0  0  0  0  0  0  0  0  0  0
   -0.8660    1.5000    0.0000 H   0  0  0  0  0  0  0  0  0  0  0  0
    0.9511   -1.3090    0.0000 N   0  0  0  0  0  0  0  0  0  0  0  0
    1.5388   -0.5000    0.0000 C   0  0  0  0  0  0  0  0  0  0  0  0
    0.9511    0.3090    0.0000 C   0  0  0  0  0  0  0  0  0  0  0  0
    2.5388   -0.5000    0.0000 O   0  0  0  0  0  0  0  0  0  0  0  0
    1.2601    1.2601    0.0000 O   0  0  0  0  0  0  0  0  0  0  0  0
    1.2601   -2.2601    0.0000 H   0  0  0  0  0  0  0  0  0  0  0  0
   -2.5981    0.5000    0.0000 N   0  0  0  0  0  0  0  0  0  0  0  0
   -2.5981    1.5000    0.0000 O   0  0  0  0  0  0  0  0  0  0  0  0
   -3.4641    0.0000    0.0000 O   0  0  0  0  0  0  0  0  0  0  0  0
  1  2  2  0  0  0  0
  1  7  1  0  0  0  0
  2  3  1  0  0  0  0
  2  8  1  0  0  0  0
  3  4  2  0  0  0  0
  3 10  1  0  0  0  0
  4  5  1  0  0  0  0
  5  6  2  0  0  0  0
  5  9  1  0  0  0  0
  6  1  1  0  0  0  0
  6 16  1  0  0  0  0
 10 11  1  0  0  0  0
 10 15  1  0  0  0  0
 11 12  1  0  0  0  0
 11 13  2  0  0  0  0
 12  4  1  0  0  0  0
 12 14  2  0  0  0  0
 16 18  2  0  0  0  0
 17 16  2  0  0  0  0
M  END
>  <activity>
Inactive

$$$$
mutag_d71
 OpenBabel01191712022D

 40 44  0  0  0  0  0  0  0  0999 V2000
    1.6272    1.8372    0.0000 C   0  0  0  0  0  0  0  0  0  0  0  0
    2.4310    1.3593    0.0000 C   0  0  0  0  0  0  0  0  0  0  0  0
    2.4188    0.4302    0.0000 C   0  0  0  0  0  0  0  0  0  0  0  0
    1.6029   -0.0210    0.0000 C   0  0  0  0  0  0  0  0  0  0  0  0
    0.8047    0.4513    0.0000 C   0  0  0  0  0  0  0  0  0  0  0  0
    0.8169    1.3804    0.0000 C   0  0  0  0  0  0  0  0  0  0  0  0
    3.2115   -0.0420    0.0000 C   0  0  0  0  0  0  0  0  0  0  0  0
    3.1994   -0.9660    0.0000 C   0  0  0  0  0  0  0  0  0  0  0  0
    2.3945   -1.4280    0.0000 C   0  0  0  0  0  0  0  0  0  0  0  0
    1.5909   -0.9450    0.0000 C   0  0  0  0  0  0  0  0  0  0  0  0
    0.7804   -1.4069    0.0000 C   0  0  0  0  0  0  0  0  0  0  0  0
   -0.0121   -0.9240    0.0000 C   0  0  0  0  0  0  0  0  0  0  0  0
    0.0000    0.0000    0.0000 C   0  0  0  0  0  0  0  0  0  0  0  0
    2.3824   -2.3571    0.0000 C   0  0  0  0  0  0  0  0  0  0  0  0
    1.5777   -2.8033    0.0000 C   0  0  0  0  0  0  0  0  0  0  0  0
    0.7683   -2.3360    0.0000 C   0  0  0  0  0  0  0  0  0  0  0  0
   -0.8183   -1.3755    0.0000 C   0  0  0  0  0  0  0  0  0  0  0  0
   -1.6125   -0.9031    0.0000 C   0  0  0  0  0  0  0  0  0  0  0  0
   -1.6004    0.0209    0.0000 C   0  0  0  0  0  0  0  0  0  0  0  0
   -0.7942    0.4725    0.0000 C   0  0  0  0  0  0  0  0  0  0  0  0
   -0.0394   -2.7953    0.0000 N   0  0  0  0  0  0  0  0  0  0  0  0
    0.0177    1.8544    0.0000 N   0  0  0  0  0  0  0  0  0  0  0  0
   -0.9683   -2.7716    0.0000 O   0  0  0  0  0  0  0  0  0  0  0  0
    0.4045   -3.6116    0.0000 O   0  0  0  0  0  0  0  0  0  0  0  0
    0.0285    2.7835    0.0000 O   0  0  0  0  0  0  0  0  0  0  0  0
   -0.7924    1.3992    0.0000 O   0  0  0  0  0  0  0  0  0  0  0  0
    1.6380    2.7652    0.0000 H   0  0  0  0  0  0  0  0  0  0  0  0
    3.2406    1.8128    0.0000 H   0  0  0  0  0  0  0  0  0  0  0  0
    4.0211    0.4115    0.0000 H   0  0  0  0  0  0  0  0  0  0  0  0
    3.9994   -1.4362    0.0000 H   0  0  0  0  0  0  0  0  0  0  0  0
    3.1824   -2.8273    0.0000 H   0  0  0  0  0  0  0  0  0  0  0  0
    1.5697   -3.7312    0.0000 H   0  0  0  0  0  0  0  0  0  0  0  0
   -2.5408   -0.8909    0.0000 H   0  0  0  0  0  0  0  0  0  0  0  0
   -2.0872   -1.7010    0.0000 H   0  0  0  0  0  0  0  0  0  0  0  0
   -1.2930   -2.1734    0.0000 H   0  0  0  0  0  0  0  0  0  0  0  0
   -0.3646   -2.1856    0.0000 H   0  0  0  0  0  0  0  0  0  0  0  0
   -0.3195    1.2704    0.0000 H   0  0  0  0  0  0  0  0  0  0  0  0
   -1.2478    1.2825    0.0000 H   0  0  0  0  0  0  0  0  0  0  0  0
   -2.0541    0.8310    0.0000 H   0  0  0  0  0  0  0  0  0  0  0  0
   -2.5288    0.0331    0.0000 H   0  0  0  0  0  0  0  0  0  0  0  0
  1  2  2  0  0  0  0
  1 27  1  0  0  0  0
  2  3  1  0  0  0  0
  2 28  1  0  0  0  0
  3  4  2  0  0  0  0
  3  7  1  0  0  0  0
  4  5  1  0  0  0  0
  5  6  2  0  0  0  0
  6  1  1  0  0  0  0
  6 22  1  0  0  0  0
  7  8  2  0  0  0  0
  7 29  1  0  0  0  0
  8  9  1  0  0  0  0
  8 30  1  0  0  0  0
  9 10  2  0  0  0  0
  9 14  1  0  0  0  0
 10  4  1  0  0  0  0
 10 11  1  0  0  0  0
 11 12  1  0  0  0  0
 12 13  2  0  0  0  0
 12 17  1  0  0  0  0
 13  5  1  0  0  0  0
 14 15  2  0  0  0  0
 14 31  1  0  0  0  0
 15 16  1  0  0  0  0
 15 32  1  0  0  0  0
 16 11  2  0  0  0  0
 17 18  1  0  0  0  0
 17 35  1  0  0  0  0
 17 36  1  0  0  0  0
 18 19  1  0  0  0  0
 18 33  1  0  0  0  0
 18 34  1  0  0  0  0
 19 20  1  0  0  0  0
 19 39  1  0  0  0  0
 19 40  1  0  0  0  0
 20 13  1  0  0  0  0
 20 37  1  0  0  0  0
 20 38  1  0  0  0  0
 21 16  1  0  0  0  0
 21 24  2  0  0  0  0
 22 25  2  0  0  0  0
 23 21  2  0  0  0  0
 26 22  2  0  0  0  0
M  END
>  <activity>
Active

$$$$
mutag_d72
 OpenBabel01191712022D

 25 27  0  0  0  0  0  0  0  0999 V2000
    3.3200   -0.0007    0.0000 C   0  0  0  0  0  0  0  0  0  0  0  0
    2.4901   -0.4796    0.0000 C   0  0  0  0  0  0  0  0  0  0  0  0
    1.6600   -0.0003    0.0000 C   0  0  0  0  0  0  0  0  0  0  0  0
    1.6602    0.9584    0.0000 C   0  0  0  0  0  0  0  0  0  0  0  0
    2.4905    1.4374    0.0000 C   0  0  0  0  0  0  0  0  0  0  0  0
    3.3202    0.9581    0.0000 C   0  0  0  0  0  0  0  0  0  0  0  0
    4.1904   -0.5034    0.0000 H   0  0  0  0  0  0  0  0  0  0  0  0
    2.4901   -1.4848    0.0000 H   0  0  0  0  0  0  0  0  0  0  0  0
    2.4906    2.4426    0.0000 H   0  0  0  0  0  0  0  0  0  0  0  0
    4.1908    1.4605    0.0000 H   0  0  0  0  0  0  0  0  0  0  0  0
    0.0000   -0.0000    0.0000 C   0  0  0  0  0  0  0  0  0  0  0  0
   -0.8303   -0.4790    0.0000 C   0  0  0  0  0  0  0  0  0  0  0  0
   -1.6600    0.0003    0.0000 C   0  0  0  0  0  0  0  0  0  0  0  0
   -1.6598    0.9591    0.0000 C   0  0  0  0  0  0  0  0  0  0  0  0
   -0.8300    1.4380    0.0000 C   0  0  0  0  0  0  0  0  0  0  0  0
    0.0002    0.9587    0.0000 C   0  0  0  0  0  0  0  0  0  0  0  0
   -0.8307   -1.4842    0.0000 H   0  0  0  0  0  0  0  0  0  0  0  0
   -2.5303    1.4618    0.0000 H   0  0  0  0  0  0  0  0  0  0  0  0
   -0.8299    2.4433    0.0000 H   0  0  0  0  0  0  0  0  0  0  0  0
    0.8301   -0.4793    0.0000 C   0  0  0  0  0  0  0  0  0  0  0  0
    0.8301   -1.4845    0.0000 H   0  0  0  0  0  0  0  0  0  0  0  0
   -0.0405   -0.9818    0.0000 H   0  0  0  0  0  0  0  0  0  0  0  0
   -2.4898   -0.4786    0.0000 N   0  0  0  0  0  0  0  0  0  0  0  0
   -3.4010   -0.1824    0.0000 O   0  0  0  0  0  0  0  0  0  0  0  0
   -2.2907   -1.4159    0.0000 O   0  0  0  0  0  0  0  0  0  0  0  0
  1  2  2  0  0  0  0
  1  7  1  0  0  0  0
  2  3  1  0  0  0  0
  2  8  1  0  0  0  0
  3  4  2  0  0  0  0
  3 20  1  0  0  0  0
  4  5  1  0  0  0  0
  4 16  1  0  0  0  0
  5  6  2  0  0  0  0
  5  9  1  0  0  0  0
  6  1  1  0  0  0  0
  6 10  1  0  0  0  0
 11 12  2  0  0  0  0
 12 13  1  0  0  0  0
 12 17  1  0  0  0  0
 13 14  2  0  0  0  0
 13 23  1  0  0  0  0
 14 15  1  0  0  0  0
 14 18  1  0  0  0  0
 15 16  2  0  0  0  0
 15 19  1  0  0  0  0
 16 11  1  0  0  0  0
 20 11  1  0  0  0  0
 20 21  1  0  0  0  0
 20 22  1  0  0  0  0
 23 25  2  0  0  0  0
 24 23  2  0  0  0  0
M  END
>  <activity>
Active

$$$$
mutag_d73
 OpenBabel01191712022D

 26 27  0  0  0  0  0  0  0  0999 V2000
    3.3404    1.9286    0.0000 C   0  0  0  0  0  0  0  0  0  0  0  0
    3.3404    0.9643    0.0000 C   0  0  0  0  0  0  0  0  0  0  0  0
    2.5053    0.4821    0.0000 C   0  0  0  0  0  0  0  0  0  0  0  0
    1.6702    0.9643    0.0000 C   0  0  0  0  0  0  0  0  0  0  0  0
    1.6702    1.9286    0.0000 C   0  0  0  0  0  0  0  0  0  0  0  0
    2.5053    2.4107    0.0000 C   0  0  0  0  0  0  0  0  0  0  0  0
    4.1755    2.4107    0.0000 H   0  0  0  0  0  0  0  0  0  0  0  0
    4.1755    0.4821    0.0000 H   0  0  0  0  0  0  0  0  0  0  0  0
    2.5053   -0.4821    0.0000 H   0  0  0  0  0  0  0  0  0  0  0  0
    2.5053    3.3750    0.0000 H   0  0  0  0  0  0  0  0  0  0  0  0
    0.0000   -0.0000    0.0000 C   0  0  0  0  0  0  0  0  0  0  0  0
   -0.0000   -0.9643    0.0000 C   0  0  0  0  0  0  0  0  0  0  0  0
   -0.8351   -1.4464    0.0000 C   0  0  0  0  0  0  0  0  0  0  0  0
   -1.6702   -0.9643    0.0000 C   0  0  0  0  0  0  0  0  0  0  0  0
   -1.6702    0.0000    0.0000 C   0  0  0  0  0  0  0  0  0  0  0  0
   -0.8351    0.4821    0.0000 C   0  0  0  0  0  0  0  0  0  0  0  0
    0.8351   -1.4464    0.0000 H   0  0  0  0  0  0  0  0  0  0  0  0
   -0.8351   -2.4107    0.0000 H   0  0  0  0  0  0  0  0  0  0  0  0
   -2.5053   -1.4464    0.0000 H   0  0  0  0  0  0  0  0  0  0  0  0
   -0.8351    1.4464    0.0000 H   0  0  0  0  0  0  0  0  0  0  0  0
   -2.5053    0.4821    0.0000 N   0  0  0  0  0  0  0  0  0  0  0  0
    0.8351    2.4107    0.0000 N   0  0  0  0  0  0  0  0  0  0  0  0
    0.8351    3.3750    0.0000 O   0  0  0  0  0  0  0  0  0  0  0  0
    0.0000    1.9286    0.0000 O   0  0  0  0  0  0  0  0  0  0  0  0
   -2.5053    1.4464    0.0000 H   0  0  0  0  0  0  0  0  0  0  0  0
   -3.3404    0.0000    0.0000 H   0  0  0  0  0  0  0  0  0  0  0  0
  1  2  2  0  0  0  0
  1  7  1  0  0  0  0
  2  3  1  0  0  0  0
  2  8  1  0  0  0  0
  3  4  2  0  0  0  0
  3  9  1  0  0  0  0
  4  5  1  0  0  0  0
  4 11  1  0  0  0  0
  5  6  2  0  0  0  0
  6  1  1  0  0  0  0
  6 10  1  0  0  0  0
 11 12  2  0  0  0  0
 12 13  1  0  0  0  0
 12 17  1  0  0  0  0
 13 14  2  0  0  0  0
 13 18  1  0  0  0  0
 14 15  1  0  0  0  0
 14 19  1  0  0  0  0
 15 16  2  0  0  0  0
 16 11  1  0  0  0  0
 16 20  1  0  0  0  0
 21 15  1  0  0  0  0
 21 25  1  0  0  0  0
 21 26  1  0  0  0  0
 22  5  1  0  0  0  0
 22 24  2  0  0  0  0
 23 22  2  0  0  0  0
M  END
>  <activity>
Inactive

$$$$
mutag_d74
 OpenBabel01191712022D

 34 38  0  0  0  0  0  0  0  0999 V2000
   -0.0006   -2.8493    0.0000 C   0  0  0  0  0  0  0  0  0  0  0  0
   -0.8232   -2.3743    0.0000 C   0  0  0  0  0  0  0  0  0  0  0  0
   -0.8230   -1.4247    0.0000 C   0  0  0  0  0  0  0  0  0  0  0  0
   -0.0002   -0.9501    0.0000 C   0  0  0  0  0  0  0  0  0  0  0  0
    0.8220   -1.4251    0.0000 C   0  0  0  0  0  0  0  0  0  0  0  0
    0.8218   -2.3747    0.0000 C   0  0  0  0  0  0  0  0  0  0  0  0
   -0.0008   -3.8296    0.0000 H   0  0  0  0  0  0  0  0  0  0  0  0
   -1.6723   -2.8644    0.0000 H   0  0  0  0  0  0  0  0  0  0  0  0
    1.6707   -2.8650    0.0000 H   0  0  0  0  0  0  0  0  0  0  0  0
   -1.6452   -0.9498    0.0000 C   0  0  0  0  0  0  0  0  0  0  0  0
   -1.6450    0.0003    0.0000 C   0  0  0  0  0  0  0  0  0  0  0  0
   -0.8227    0.4750    0.0000 C   0  0  0  0  0  0  0  0  0  0  0  0
    0.0000    0.0000    0.0000 C   0  0  0  0  0  0  0  0  0  0  0  0
   -2.4943   -1.4397    0.0000 H   0  0  0  0  0  0  0  0  0  0  0  0
   -2.4939    0.4906    0.0000 H   0  0  0  0  0  0  0  0  0  0  0  0
   -0.8226    1.4553    0.0000 H   0  0  0  0  0  0  0  0  0  0  0  0
    1.6448   -0.9504    0.0000 C   0  0  0  0  0  0  0  0  0  0  0  0
    1.6450   -0.0003    0.0000 C   0  0  0  0  0  0  0  0  0  0  0  0
    2.4679    0.4743    0.0000 C   0  0  0  0  0  0  0  0  0  0  0  0
    3.2900   -0.0007    0.0000 C   0  0  0  0  0  0  0  0  0  0  0  0
    3.2898   -0.9507    0.0000 C   0  0  0  0  0  0  0  0  0  0  0  0
    2.4675   -1.4254    0.0000 C   0  0  0  0  0  0  0  0  0  0  0  0
    2.4679    1.4546    0.0000 H   0  0  0  0  0  0  0  0  0  0  0  0
    2.4674   -2.4057    0.0000 H   0  0  0  0  0  0  0  0  0  0  0  0
    4.1129    0.4742    0.0000 C   0  0  0  0  0  0  0  0  0  0  0  0
    4.9356   -0.0010    0.0000 C   0  0  0  0  0  0  0  0  0  0  0  0
    4.9355   -0.9511    0.0000 C   0  0  0  0  0  0  0  0  0  0  0  0
    4.1126   -1.4260    0.0000 C   0  0  0  0  0  0  0  0  0  0  0  0
    4.1131    1.4606    0.0000 H   0  0  0  0  0  0  0  0  0  0  0  0
    5.7896   -1.4444    0.0000 H   0  0  0  0  0  0  0  0  0  0  0  0
    4.1124   -2.4123    0.0000 H   0  0  0  0  0  0  0  0  0  0  0  0
    5.7900    0.4920    0.0000 N   0  0  0  0  0  0  0  0  0  0  0  0
    6.6441   -0.0013    0.0000 O   0  0  0  0  0  0  0  0  0  0  0  0
    5.7902    1.4784    0.0000 O   0  0  0  0  0  0  0  0  0  0  0  0
  1  2  2  0  0  0  0
  1  7  1  0  0  0  0
  2  3  1  0  0  0  0
  2  8  1  0  0  0  0
  3  4  2  0  0  0  0
  3 10  1  0  0  0  0
  4  5  1  0  0  0  0
  5  6  2  0  0  0  0
  6  1  1  0  0  0  0
  6  9  1  0  0  0  0
 10 11  2  0  0  0  0
 10 14  1  0  0  0  0
 11 12  1  0  0  0  0
 11 15  1  0  0  0  0
 12 13  2  0  0  0  0
 12 16  1  0  0  0  0
 13  4  1  0  0  0  0
 17 18  2  0  0  0  0
 17  5  1  0  0  0  0
 18 19  1  0  0  0  0
 18 13  1  0  0  0  0
 19 20  2  0  0  0  0
 19 23  1  0  0  0  0
 20 21  1  0  0  0  0
 20 25  1  0  0  0  0
 21 22  2  0  0  0  0
 22 17  1  0  0  0  0
 22 24  1  0  0  0  0
 25 26  2  0  0  0  0
 25 29  1  0  0  0  0
 26 27  1  0  0  0  0
 26 32  1  0  0  0  0
 27 28  2  0  0  0  0
 27 30  1  0  0  0  0
 28 21  1  0  0  0  0
 28 31  1  0  0  0  0
 32 34  2  0  0  0  0
 33 32  2  0  0  0  0
M  END
>  <activity>
Active

$$$$
mutag_d75
 OpenBabel01191712022D

 26 27  0  0  0  0  0  0  0  0999 V2000
    2.5981    1.5000    0.0000 C   0  0  0  0  0  0  0  0  0  0  0  0
    2.5981    0.5000    0.0000 C   0  0  0  0  0  0  0  0  0  0  0  0
    1.7321   -0.0000    0.0000 C   0  0  0  0  0  0  0  0  0  0  0  0
    0.8660    0.5000    0.0000 C   0  0  0  0  0  0  0  0  0  0  0  0
    0.8660    1.5000    0.0000 C   0  0  0  0  0  0  0  0  0  0  0  0
    1.7321    2.0000    0.0000 C   0  0  0  0  0  0  0  0  0  0  0  0
    3.4641   -0.0000    0.0000 H   0  0  0  0  0  0  0  0  0  0  0  0
    1.7321   -1.0000    0.0000 H   0  0  0  0  0  0  0  0  0  0  0  0
    0.0000    2.0000    0.0000 H   0  0  0  0  0  0  0  0  0  0  0  0
    1.7321    3.0000    0.0000 H   0  0  0  0  0  0  0  0  0  0  0  0
    0.0000   -0.0000    0.0000 C   0  0  0  0  0  0  0  0  0  0  0  0
   -0.0000   -1.0000    0.0000 C   0  0  0  0  0  0  0  0  0  0  0  0
   -0.8660   -1.5000    0.0000 C   0  0  0  0  0  0  0  0  0  0  0  0
   -1.7321   -1.0000    0.0000 C   0  0  0  0  0  0  0  0  0  0  0  0
   -1.7321    0.0000    0.0000 C   0  0  0  0  0  0  0  0  0  0  0  0
   -0.8660    0.5000    0.0000 C   0  0  0  0  0  0  0  0  0  0  0  0
    0.8660   -1.5000    0.0000 H   0  0  0  0  0  0  0  0  0  0  0  0
   -0.8660   -2.5000    0.0000 H   0  0  0  0  0  0  0  0  0  0  0  0
   -2.5981    0.5000    0.0000 H   0  0  0  0  0  0  0  0  0  0  0  0
   -0.8660    1.5000    0.0000 H   0  0  0  0  0  0  0  0  0  0  0  0
   -2.5981   -1.5000    0.0000 N   0  0  0  0  0  0  0  0  0  0  0  0
    3.4641    2.0000    0.0000 N   0  0  0  0  0  0  0  0  0  0  0  0
   -3.4641   -1.0000    0.0000 O   0  0  0  0  0  0  0  0  0  0  0  0
   -2.5981   -2.5000    0.0000 O   0  0  0  0  0  0  0  0  0  0  0  0
    4.3301    1.5000    0.0000 O   0  0  0  0  0  0  0  0  0  0  0  0
    3.4641    3.0000    0.0000 O   0  0  0  0  0  0  0  0  0  0  0  0
  1  2  2  0  0  0  0
  1 22  1  0  0  0  0
  2  3  1  0  0  0  0
  2  7  1  0  0  0  0
  3  4  2  0  0  0  0
  3  8  1  0  0  0  0
  4  5  1  0  0  0  0
  4 11  1  0  0  0  0
  5  6  2  0  0  0  0
  5  9  1  0  0  0  0
  6  1  1  0  0  0  0
  6 10  1  0  0  0  0
 11 12  2  0  0  0  0
 12 13  1  0  0  0  0
 12 17  1  0  0  0  0
 13 14  2  0  0  0  0
 13 18  1  0  0  0  0
 14 15  1  0  0  0  0
 15 16  2  0  0  0  0
 15 19  1  0  0  0  0
 16 11  1  0  0  0  0
 16 20  1  0  0  0  0
 21 14  1  0  0  0  0
 21 24  2  0  0  0  0
 22 25  2  0  0  0  0
 22 26  2  0  0  0  0
 23 21  2  0  0  0  0
M  END
>  <activity>
Active

$$$$
mutag_d76
 OpenBabel01191712022D

 14 14  0  0  0  0  0  0  0  0999 V2000
    0.0000   -0.0000    0.0000 C   0  0  0  0  0  0  0  0  0  0  0  0
    0.8660   -0.5000    0.0000 C   0  0  0  0  0  0  0  0  0  0  0  0
    0.8660   -1.5000    0.0000 C   0  0  0  0  0  0  0  0  0  0  0  0
    0.0000   -2.0000    0.0000 C   0  0  0  0  0  0  0  0  0  0  0  0
   -0.8660   -1.5000    0.0000 C   0  0  0  0  0  0  0  0  0  0  0  0
   -0.8660   -0.5000    0.0000 C   0  0  0  0  0  0  0  0  0  0  0  0
    0.0000    1.0000    0.0000 H   0  0  0  0  0  0  0  0  0  0  0  0
    1.7321    0.0000    0.0000 H   0  0  0  0  0  0  0  0  0  0  0  0
    1.7321   -2.0000    0.0000 H   0  0  0  0  0  0  0  0  0  0  0  0
   -1.7321   -0.0000    0.0000 H   0  0  0  0  0  0  0  0  0  0  0  0
   -1.7321   -2.0000    0.0000 N   0  0  0  0  0  0  0  0  0  0  0  0
   -0.0000   -3.0000    0.0000 Cl  0  0  0  0  0  0  0  0  0  0  0  0
   -2.5981   -1.5000    0.0000 O   0  0  0  0  0  0  0  0  0  0  0  0
   -1.7321   -3.0000    0.0000 O   0  0  0  0  0  0  0  0  0  0  0  0
  1  2  2  0  0  0  0
  1  7  1  0  0  0  0
  2  3  1  0  0  0  0
  2  8  1  0  0  0  0
  3  4  2  0  0  0  0
  3  9  1  0  0  0  0
  4  5  1  0  0  0  0
  4 12  1  0  0  0  0
  5  6  2  0  0  0  0
  6  1  1  0  0  0  0
  6 10  1  0  0  0  0
 11  5  1  0  0  0  0
 11 14  2  0  0  0  0
 13 11  2  0  0  0  0
M  END
>  <activity>
Inactive

$$$$
mutag_d77
 OpenBabel01191712022D

 26 27  0  0  0  0  0  0  0  0999 V2000
   -3.3404   -1.9286    0.0000 C   0  0  0  0  0  0  0  0  0  0  0  0
   -3.3404   -0.9643    0.0000 C   0  0  0  0  0  0  0  0  0  0  0  0
   -2.5053   -0.4821    0.0000 C   0  0  0  0  0  0  0  0  0  0  0  0
   -1.6702   -0.9643    0.0000 C   0  0  0  0  0  0  0  0  0  0  0  0
   -1.6702   -1.9286    0.0000 C   0  0  0  0  0  0  0  0  0  0  0  0
   -2.5053   -2.4107    0.0000 C   0  0  0  0  0  0  0  0  0  0  0  0
   -4.1755   -2.4107    0.0000 H   0  0  0  0  0  0  0  0  0  0  0  0
   -4.1755   -0.4821    0.0000 H   0  0  0  0  0  0  0  0  0  0  0  0
   -2.5053    0.4821    0.0000 H   0  0  0  0  0  0  0  0  0  0  0  0
   -0.8351   -2.4107    0.0000 H   0  0  0  0  0  0  0  0  0  0  0  0
    0.0000    0.0000    0.0000 C   0  0  0  0  0  0  0  0  0  0  0  0
    0.0000    0.9643    0.0000 C   0  0  0  0  0  0  0  0  0  0  0  0
    0.8351    1.4464    0.0000 C   0  0  0  0  0  0  0  0  0  0  0  0
    1.6702    0.9643    0.0000 C   0  0  0  0  0  0  0  0  0  0  0  0
    1.6702   -0.0000    0.0000 C   0  0  0  0  0  0  0  0  0  0  0  0
    0.8351   -0.4821    0.0000 C   0  0  0  0  0  0  0  0  0  0  0  0
   -0.8351    1.4464    0.0000 H   0  0  0  0  0  0  0  0  0  0  0  0
    0.8351    2.4107    0.0000 H   0  0  0  0  0  0  0  0  0  0  0  0
    2.5053    1.4464    0.0000 H   0  0  0  0  0  0  0  0  0  0  0  0
    2.5053   -0.4821    0.0000 H   0  0  0  0  0  0  0  0  0  0  0  0
    0.8351   -1.4464    0.0000 N   0  0  0  0  0  0  0  0  0  0  0  0
   -2.5053   -3.3750    0.0000 N   0  0  0  0  0  0  0  0  0  0  0  0
   -3.3404   -3.8571    0.0000 O   0  0  0  0  0  0  0  0  0  0  0  0
   -1.6702   -3.8571    0.0000 O   0  0  0  0  0  0  0  0  0  0  0  0
    0.0000   -1.9286    0.0000 H   0  0  0  0  0  0  0  0  0  0  0  0
    1.6702   -1.9286    0.0000 H   0  0  0  0  0  0  0  0  0  0  0  0
  1  2  2  0  0  0  0
  1  7  1  0  0  0  0
  2  3  1  0  0  0  0
  2  8  1  0  0  0  0
  3  4  2  0  0  0  0
  3  9  1  0  0  0  0
  4  5  1  0  0  0  0
  4 11  1  0  0  0  0
  5  6  2  0  0  0  0
  5 10  1  0  0  0  0
  6  1  1  0  0  0  0
  6 22  1  0  0  0  0
 11 12  2  0  0  0  0
 12 13  1  0  0  0  0
 12 17  1  0  0  0  0
 13 14  2  0  0  0  0
 13 18  1  0  0  0  0
 14 15  1  0  0  0  0
 14 19  1  0  0  0  0
 15 16  2  0  0  0  0
 15 20  1  0  0  0  0
 16 11  1  0  0  0  0
 16 21  1  0  0  0  0
 21 25  1  0  0  0  0
 21 26  1  0  0  0  0
 22 24  2  0  0  0  0
 23 22  2  0  0  0  0
M  END
>  <activity>
Inactive

$$$$
mutag_d78
 OpenBabel01191712022D

 27 28  0  0  0  0  0  0  0  0999 V2000
    2.5981    1.5000    0.0000 C   0  0  0  0  0  0  0  0  0  0  0  0
    2.5981    0.5000    0.0000 C   0  0  0  0  0  0  0  0  0  0  0  0
    1.7321   -0.0000    0.0000 C   0  0  0  0  0  0  0  0  0  0  0  0
    0.8660    0.5000    0.0000 C   0  0  0  0  0  0  0  0  0  0  0  0
    0.8660    1.5000    0.0000 C   0  0  0  0  0  0  0  0  0  0  0  0
    1.7321    2.0000    0.0000 C   0  0  0  0  0  0  0  0  0  0  0  0
    3.4641    2.0000    0.0000 H   0  0  0  0  0  0  0  0  0  0  0  0
    3.4641   -0.0000    0.0000 H   0  0  0  0  0  0  0  0  0  0  0  0
    1.7321   -1.0000    0.0000 H   0  0  0  0  0  0  0  0  0  0  0  0
    1.7321    3.0000    0.0000 H   0  0  0  0  0  0  0  0  0  0  0  0
    0.0000   -0.0000    0.0000 C   0  0  0  0  0  0  0  0  0  0  0  0
   -0.0000   -1.0000    0.0000 C   0  0  0  0  0  0  0  0  0  0  0  0
   -0.8660   -1.5000    0.0000 C   0  0  0  0  0  0  0  0  0  0  0  0
   -1.7321   -1.0000    0.0000 C   0  0  0  0  0  0  0  0  0  0  0  0
   -1.7321    0.0000    0.0000 C   0  0  0  0  0  0  0  0  0  0  0  0
   -0.8660    0.5000    0.0000 C   0  0  0  0  0  0  0  0  0  0  0  0
    0.8660   -1.5000    0.0000 H   0  0  0  0  0  0  0  0  0  0  0  0
   -0.8660   -2.5000    0.0000 H   0  0  0  0  0  0  0  0  0  0  0  0
   -2.5981    0.5000    0.0000 H   0  0  0  0  0  0  0  0  0  0  0  0
   -0.8660    1.5000    0.0000 H   0  0  0  0  0  0  0  0  0  0  0  0
    0.0000    2.0000    0.0000 C   0  0  0  0  0  0  0  0  0  0  0  0
   -1.0000    2.0000    0.0000 H   0  0  0  0  0  0  0  0  0  0  0  0
   -0.5000    1.1340    0.0000 H   0  0  0  0  0  0  0  0  0  0  0  0
   -0.0000    3.0000    0.0000 H   0  0  0  0  0  0  0  0  0  0  0  0
   -2.5981   -1.5000    0.0000 N   0  0  0  0  0  0  0  0  0  0  0  0
   -3.4641   -1.0000    0.0000 O   0  0  0  0  0  0  0  0  0  0  0  0
   -2.5981   -2.5000    0.0000 O   0  0  0  0  0  0  0  0  0  0  0  0
  1  2  2  0  0  0  0
  1  7  1  0  0  0  0
  2  3  1  0  0  0  0
  2  8  1  0  0  0  0
  3  4  2  0  0  0  0
  3  9  1  0  0  0  0
  4  5  1  0  0  0  0
  4 11  1  0  0  0  0
  5  6  2  0  0  0  0
  6  1  1  0  0  0  0
  6 10  1  0  0  0  0
 11 12  2  0  0  0  0
 12 13  1  0  0  0  0
 12 17  1  0  0  0  0
 13 14  2  0  0  0  0
 13 18  1  0  0  0  0
 14 15  1  0  0  0  0
 14 25  1  0  0  0  0
 15 16  2  0  0  0  0
 15 19  1  0  0  0  0
 16 11  1  0  0  0  0
 16 20  1  0  0  0  0
 21  5  1  0  0  0  0
 21 22  1  0  0  0  0
 21 23  1  0  0  0  0
 21 24  1  0  0  0  0
 25 27  2  0  0  0  0
 26 25  2  0  0  0  0
M  END
>  <activity>
Inactive

$$$$
mutag_d79
 OpenBabel01191712022D

 24 26  0  0  0  0  0  0  0  0999 V2000
    1.7321   -1.0000    0.0000 C   0  0  0  0  0  0  0  0  0  0  0  0
    0.8660   -1.5000    0.0000 C   0  0  0  0  0  0  0  0  0  0  0  0
    0.0000   -1.0000    0.0000 C   0  0  0  0  0  0  0  0  0  0  0  0
    0.0000   -0.0000    0.0000 C   0  0  0  0  0  0  0  0  0  0  0  0
    0.8660    0.5000    0.0000 C   0  0  0  0  0  0  0  0  0  0  0  0
    1.7321    0.0000    0.0000 C   0  0  0  0  0  0  0  0  0  0  0  0
    2.5981   -1.5000    0.0000 H   0  0  0  0  0  0  0  0  0  0  0  0
    0.8660   -2.5000    0.0000 H   0  0  0  0  0  0  0  0  0  0  0  0
    0.8660    1.5000    0.0000 H   0  0  0  0  0  0  0  0  0  0  0  0
    2.5981    0.5000    0.0000 H   0  0  0  0  0  0  0  0  0  0  0  0
   -1.7321   -1.0000    0.0000 C   0  0  0  0  0  0  0  0  0  0  0  0
   -2.5981   -1.5000    0.0000 C   0  0  0  0  0  0  0  0  0  0  0  0
   -3.4641   -1.0000    0.0000 C   0  0  0  0  0  0  0  0  0  0  0  0
   -3.4641   -0.0000    0.0000 C   0  0  0  0  0  0  0  0  0  0  0  0
   -2.5981    0.5000    0.0000 C   0  0  0  0  0  0  0  0  0  0  0  0
   -1.7321   -0.0000    0.0000 C   0  0  0  0  0  0  0  0  0  0  0  0
   -2.5981   -2.5000    0.0000 H   0  0  0  0  0  0  0  0  0  0  0  0
   -4.3301   -1.5000    0.0000 H   0  0  0  0  0  0  0  0  0  0  0  0
   -2.5981    1.5000    0.0000 H   0  0  0  0  0  0  0  0  0  0  0  0
   -0.8660   -1.5000    0.0000 O   0  0  0  0  0  0  0  0  0  0  0  0
   -0.8660    0.5000    0.0000 O   0  0  0  0  0  0  0  0  0  0  0  0
   -4.3301    0.5000    0.0000 N   0  0  0  0  0  0  0  0  0  0  0  0
   -4.3301    1.5000    0.0000 O   0  0  0  0  0  0  0  0  0  0  0  0
   -5.1962    0.0000    0.0000 O   0  0  0  0  0  0  0  0  0  0  0  0
  1  2  2  0  0  0  0
  1  7  1  0  0  0  0
  2  3  1  0  0  0  0
  2  8  1  0  0  0  0
  3  4  2  0  0  0  0
  3 20  1  0  0  0  0
  4  5  1  0  0  0  0
  5  6  2  0  0  0  0
  5  9  1  0  0  0  0
  6  1  1  0  0  0  0
  6 10  1  0  0  0  0
 11 12  2  0  0  0  0
 12 13  1  0  0  0  0
 12 17  1  0  0  0  0
 13 14  2  0  0  0  0
 13 18  1  0  0  0  0
 14 15  1  0  0  0  0
 15 16  2  0  0  0  0
 15 19  1  0  0  0  0
 16 11  1  0  0  0  0
 16 21  1  0  0  0  0
 20 11  1  0  0  0  0
 21  4  1  0  0  0  0
 22 14  1  0  0  0  0
 22 24  2  0  0  0  0
 23 22  2  0  0  0  0
M  END
>  <activity>
Active

$$$$
mutag_d8
 OpenBabel01191712022D

 31 33  0  0  0  0  0  0  0  0999 V2000
    3.3567   -0.0007    0.0000 C   0  0  0  0  0  0  0  0  0  0  0  0
    2.5177   -0.4849    0.0000 C   0  0  0  0  0  0  0  0  0  0  0  0
    1.6783   -0.0003    0.0000 C   0  0  0  0  0  0  0  0  0  0  0  0
    1.6785    0.9690    0.0000 C   0  0  0  0  0  0  0  0  0  0  0  0
    2.5181    1.4533    0.0000 C   0  0  0  0  0  0  0  0  0  0  0  0
    3.3569    0.9687    0.0000 C   0  0  0  0  0  0  0  0  0  0  0  0
    0.0000   -0.0000    0.0000 C   0  0  0  0  0  0  0  0  0  0  0  0
   -0.8395   -0.4843    0.0000 C   0  0  0  0  0  0  0  0  0  0  0  0
   -1.6783    0.0003    0.0000 C   0  0  0  0  0  0  0  0  0  0  0  0
   -1.6782    0.9697    0.0000 C   0  0  0  0  0  0  0  0  0  0  0  0
   -0.8391    1.4539    0.0000 C   0  0  0  0  0  0  0  0  0  0  0  0
    0.0002    0.9693    0.0000 C   0  0  0  0  0  0  0  0  0  0  0  0
    0.8393   -0.4846    0.0000 C   0  0  0  0  0  0  0  0  0  0  0  0
    4.1956   -0.4852    0.0000 N   0  0  0  0  0  0  0  0  0  0  0  0
    4.2967   -1.4486    0.0000 O   0  0  0  0  0  0  0  0  0  0  0  0
    4.9794    0.0841    0.0000 O   0  0  0  0  0  0  0  0  0  0  0  0
    2.5176   -1.4933    0.0000 H   0  0  0  0  0  0  0  0  0  0  0  0
    2.5181    2.4617    0.0000 H   0  0  0  0  0  0  0  0  0  0  0  0
    4.2303    1.4727    0.0000 H   0  0  0  0  0  0  0  0  0  0  0  0
   -0.8399   -1.4927    0.0000 H   0  0  0  0  0  0  0  0  0  0  0  0
   -2.5514    1.4740    0.0000 H   0  0  0  0  0  0  0  0  0  0  0  0
   -0.8391    2.4623    0.0000 H   0  0  0  0  0  0  0  0  0  0  0  0
    0.8393   -1.4930    0.0000 H   0  0  0  0  0  0  0  0  0  0  0  0
   -0.0341   -0.9887    0.0000 H   0  0  0  0  0  0  0  0  0  0  0  0
   -2.5174   -0.4839    0.0000 O   0  0  0  0  0  0  0  0  0  0  0  0
   -2.3161   -1.4315    0.0000 C   0  0  0  0  0  0  0  0  0  0  0  0
   -3.0361   -2.0796    0.0000 C   0  0  0  0  0  0  0  0  0  0  0  0
   -3.3356   -3.0009    0.0000 H   0  0  0  0  0  0  0  0  0  0  0  0
   -2.3880   -2.7996    0.0000 H   0  0  0  0  0  0  0  0  0  0  0  0
   -3.9574   -1.7801    0.0000 H   0  0  0  0  0  0  0  0  0  0  0  0
   -1.3948   -1.7310    0.0000 O   0  0  0  0  0  0  0  0  0  0  0  0
  1  2  2  0  0  0  0
  1 14  1  0  0  0  0
  2  3  1  0  0  0  0
  2 17  1  0  0  0  0
  3  4  2  0  0  0  0
  3 13  1  0  0  0  0
  4  5  1  0  0  0  0
  4 12  1  0  0  0  0
  5  6  2  0  0  0  0
  5 18  1  0  0  0  0
  6  1  1  0  0  0  0
  6 19  1  0  0  0  0
  7  8  2  0  0  0  0
  8  9  1  0  0  0  0
  8 20  1  0  0  0  0
  9 10  2  0  0  0  0
  9 25  1  0  0  0  0
 10 11  1  0  0  0  0
 10 21  1  0  0  0  0
 11 12  2  0  0  0  0
 11 22  1  0  0  0  0
 12  7  1  0  0  0  0
 13  7  1  0  0  0  0
 13 23  1  0  0  0  0
 13 24  1  0  0  0  0
 14 15  2  0  0  0  0
 14 16  2  0  0  0  0
 25 26  1  0  0  0  0
 26 27  1  0  0  0  0
 26 31  2  0  0  0  0
 27 28  1  0  0  0  0
 27 29  1  0  0  0  0
 27 30  1  0  0  0  0
M  END
>  <activity>
Active

$$$$
mutag_d80
 OpenBabel01191712022D

 28 31  0  0  0  0  0  0  0  0999 V2000
   -0.0005   -2.7405    0.0000 C   0  0  0  0  0  0  0  0  0  0  0  0
   -0.7918   -2.2837    0.0000 C   0  0  0  0  0  0  0  0  0  0  0  0
   -0.7916   -1.3703    0.0000 C   0  0  0  0  0  0  0  0  0  0  0  0
   -0.0002   -0.9138    0.0000 C   0  0  0  0  0  0  0  0  0  0  0  0
    0.7906   -1.3706    0.0000 C   0  0  0  0  0  0  0  0  0  0  0  0
    0.7904   -2.2840    0.0000 C   0  0  0  0  0  0  0  0  0  0  0  0
   -0.0007   -3.6892    0.0000 H   0  0  0  0  0  0  0  0  0  0  0  0
   -1.6135   -2.7580    0.0000 H   0  0  0  0  0  0  0  0  0  0  0  0
    2.4335   -3.2330    0.0000 H   0  0  0  0  0  0  0  0  0  0  0  0
   -1.5824   -0.9135    0.0000 C   0  0  0  0  0  0  0  0  0  0  0  0
   -1.5822    0.0003    0.0000 C   0  0  0  0  0  0  0  0  0  0  0  0
   -0.7913    0.4568    0.0000 C   0  0  0  0  0  0  0  0  0  0  0  0
   -0.0000   -0.0000    0.0000 C   0  0  0  0  0  0  0  0  0  0  0  0
   -2.4041   -1.3877    0.0000 H   0  0  0  0  0  0  0  0  0  0  0  0
   -2.4037    0.4748    0.0000 H   0  0  0  0  0  0  0  0  0  0  0  0
   -0.7912    1.4055    0.0000 H   0  0  0  0  0  0  0  0  0  0  0  0
    1.5820   -0.9141    0.0000 C   0  0  0  0  0  0  0  0  0  0  0  0
    1.5822   -0.0003    0.0000 C   0  0  0  0  0  0  0  0  0  0  0  0
    2.3736    0.4562    0.0000 C   0  0  0  0  0  0  0  0  0  0  0  0
    3.1644   -0.0006    0.0000 C   0  0  0  0  0  0  0  0  0  0  0  0
    3.1642   -0.9144    0.0000 C   0  0  0  0  0  0  0  0  0  0  0  0
    2.3733   -1.3710    0.0000 C   0  0  0  0  0  0  0  0  0  0  0  0
    2.3737    1.4049    0.0000 H   0  0  0  0  0  0  0  0  0  0  0  0
    3.9861    0.4735    0.0000 H   0  0  0  0  0  0  0  0  0  0  0  0
    3.9858   -1.3889    0.0000 H   0  0  0  0  0  0  0  0  0  0  0  0
    2.3732   -2.2842    0.0000 N   0  0  0  0  0  0  0  0  0  0  0  0
    1.4799   -2.4740    0.0000 O   0  0  0  0  0  0  0  0  0  0  0  0
    2.9843   -2.9629    0.0000 O   0  0  0  0  0  0  0  0  0  0  0  0
  1  2  2  0  0  0  0
  1  7  1  0  0  0  0
  2  3  1  0  0  0  0
  2  8  1  0  0  0  0
  3  4  2  0  0  0  0
  3 10  1  0  0  0  0
  4  5  1  0  0  0  0
  5  6  2  0  0  0  0
  6  1  1  0  0  0  0
  6  9  1  0  0  0  0
 10 11  2  0  0  0  0
 10 14  1  0  0  0  0
 11 12  1  0  0  0  0
 11 15  1  0  0  0  0
 12 13  2  0  0  0  0
 12 16  1  0  0  0  0
 13  4  1  0  0  0  0
 17 18  2  0  0  0  0
 17  5  1  0  0  0  0
 18 19  1  0  0  0  0
 18 13  1  0  0  0  0
 19 20  2  0  0  0  0
 19 23  1  0  0  0  0
 20 21  1  0  0  0  0
 20 24  1  0  0  0  0
 21 22  2  0  0  0  0
 21 25  1  0  0  0  0
 22 17  1  0  0  0  0
 22 26  1  0  0  0  0
 26 28  2  0  0  0  0
 27 26  2  0  0  0  0
M  END
>  <activity>
Active

$$$$
mutag_d81
 OpenBabel01191712022D

 16 16  0  0  0  0  0  0  0  0999 V2000
   -0.0000   -0.0000    0.0000 C   0  0  0  0  0  0  0  0  0  0  0  0
   -0.8660    0.5000    0.0000 C   0  0  0  0  0  0  0  0  0  0  0  0
   -0.8660    1.5000    0.0000 C   0  0  0  0  0  0  0  0  0  0  0  0
   -0.0000    2.0000    0.0000 C   0  0  0  0  0  0  0  0  0  0  0  0
    0.8660    1.5000    0.0000 C   0  0  0  0  0  0  0  0  0  0  0  0
    0.8660    0.5000    0.0000 C   0  0  0  0  0  0  0  0  0  0  0  0
   -0.0000   -1.0000    0.0000 H   0  0  0  0  0  0  0  0  0  0  0  0
   -1.7321   -0.0000    0.0000 H   0  0  0  0  0  0  0  0  0  0  0  0
   -0.0000    3.0000    0.0000 H   0  0  0  0  0  0  0  0  0  0  0  0
    1.7321    0.0000    0.0000 H   0  0  0  0  0  0  0  0  0  0  0  0
    1.7321    2.0000    0.0000 N   0  0  0  0  0  0  0  0  0  0  0  0
   -1.7321    2.0000    0.0000 N   0  0  0  0  0  0  0  0  0  0  0  0
    2.5981    1.5000    0.0000 O   0  0  0  0  0  0  0  0  0  0  0  0
    1.7321    3.0000    0.0000 O   0  0  0  0  0  0  0  0  0  0  0  0
   -1.7321    3.0000    0.0000 O   0  0  0  0  0  0  0  0  0  0  0  0
   -2.5981    1.5000    0.0000 O   0  0  0  0  0  0  0  0  0  0  0  0
  1  2  2  0  0  0  0
  1  7  1  0  0  0  0
  2  3  1  0  0  0  0
  2  8  1  0  0  0  0
  3  4  2  0  0  0  0
  3 12  1  0  0  0  0
  4  5  1  0  0  0  0
  4  9  1  0  0  0  0
  5  6  2  0  0  0  0
  6  1  1  0  0  0  0
  6 10  1  0  0  0  0
 11  5  1  0  0  0  0
 11 14  2  0  0  0  0
 12 16  2  0  0  0  0
 13 11  2  0  0  0  0
 15 12  2  0  0  0  0
M  END
>  <activity>
Active

$$$$
mutag_d82
 OpenBabel01191712022D

 32 35  0  0  0  0  0  0  0  0999 V2000
   -0.0006   -2.8544    0.0000 C   0  0  0  0  0  0  0  0  0  0  0  0
   -0.8247   -2.3786    0.0000 C   0  0  0  0  0  0  0  0  0  0  0  0
   -0.8245   -1.4273    0.0000 C   0  0  0  0  0  0  0  0  0  0  0  0
   -0.0002   -0.9518    0.0000 C   0  0  0  0  0  0  0  0  0  0  0  0
    0.8234   -1.4276    0.0000 C   0  0  0  0  0  0  0  0  0  0  0  0
    0.8233   -2.3789    0.0000 C   0  0  0  0  0  0  0  0  0  0  0  0
   -0.0008   -3.8425    0.0000 H   0  0  0  0  0  0  0  0  0  0  0  0
    1.6789   -2.8731    0.0000 H   0  0  0  0  0  0  0  0  0  0  0  0
   -1.6481   -0.9515    0.0000 C   0  0  0  0  0  0  0  0  0  0  0  0
   -1.6480    0.0003    0.0000 C   0  0  0  0  0  0  0  0  0  0  0  0
   -0.8241    0.4758    0.0000 C   0  0  0  0  0  0  0  0  0  0  0  0
    0.0000    0.0000    0.0000 C   0  0  0  0  0  0  0  0  0  0  0  0
   -2.5040   -1.4453    0.0000 H   0  0  0  0  0  0  0  0  0  0  0  0
    1.6478   -0.9521    0.0000 C   0  0  0  0  0  0  0  0  0  0  0  0
    1.6480   -0.0003    0.0000 C   0  0  0  0  0  0  0  0  0  0  0  0
    2.4723    0.4752    0.0000 C   0  0  0  0  0  0  0  0  0  0  0  0
    3.2959   -0.0007    0.0000 C   0  0  0  0  0  0  0  0  0  0  0  0
    3.2957   -0.9524    0.0000 C   0  0  0  0  0  0  0  0  0  0  0  0
    2.4719   -1.4279    0.0000 C   0  0  0  0  0  0  0  0  0  0  0  0
    2.4726    1.4633    0.0000 H   0  0  0  0  0  0  0  0  0  0  0  0
    4.1518    0.4932    0.0000 H   0  0  0  0  0  0  0  0  0  0  0  0
    4.1514   -1.4467    0.0000 H   0  0  0  0  0  0  0  0  0  0  0  0
    2.4718   -2.4161    0.0000 H   0  0  0  0  0  0  0  0  0  0  0  0
   -0.8241    1.4270    0.0000 N   0  0  0  0  0  0  0  0  0  0  0  0
   -2.4717    0.4760    0.0000 N   0  0  0  0  0  0  0  0  0  0  0  0
   -1.6486   -2.8541    0.0000 N   0  0  0  0  0  0  0  0  0  0  0  0
   -0.0302    1.9510    0.0000 O   0  0  0  0  0  0  0  0  0  0  0  0
   -1.6748    1.8525    0.0000 O   0  0  0  0  0  0  0  0  0  0  0  0
   -2.6694    1.4064    0.0000 O   0  0  0  0  0  0  0  0  0  0  0  0
   -3.1786   -0.1604    0.0000 O   0  0  0  0  0  0  0  0  0  0  0  0
   -2.5176   -2.4671    0.0000 O   0  0  0  0  0  0  0  0  0  0  0  0
   -1.5492   -3.8002    0.0000 O   0  0  0  0  0  0  0  0  0  0  0  0
  1  2  2  0  0  0  0
  1  7  1  0  0  0  0
  2  3  1  0  0  0  0
  2 26  1  0  0  0  0
  3  4  2  0  0  0  0
  3  9  1  0  0  0  0
  4  5  1  0  0  0  0
  5  6  2  0  0  0  0
  6  1  1  0  0  0  0
  6  8  1  0  0  0  0
  9 10  2  0  0  0  0
  9 13  1  0  0  0  0
 10 11  1  0  0  0  0
 10 25  1  0  0  0  0
 11 12  2  0  0  0  0
 11 24  1  0  0  0  0
 12  4  1  0  0  0  0
 14 15  2  0  0  0  0
 14  5  1  0  0  0  0
 15 16  1  0  0  0  0
 15 12  1  0  0  0  0
 16 17  2  0  0  0  0
 16 20  1  0  0  0  0
 17 18  1  0  0  0  0
 17 21  1  0  0  0  0
 18 19  2  0  0  0  0
 18 22  1  0  0  0  0
 19 14  1  0  0  0  0
 19 23  1  0  0  0  0
 24 27  2  0  0  0  0
 24 28  2  0  0  0  0
 25 30  2  0  0  0  0
 26 31  2  0  0  0  0
 26 32  2  0  0  0  0
 29 25  2  0  0  0  0
M  END
>  <activity>
Active

$$$$
mutag_d83
 OpenBabel01191712022D

 24 26  0  0  0  0  0  0  0  0999 V2000
    3.3287   -0.0007    0.0000 C   0  0  0  0  0  0  0  0  0  0  0  0
    2.4967   -0.4809    0.0000 C   0  0  0  0  0  0  0  0  0  0  0  0
    1.6643   -0.0003    0.0000 C   0  0  0  0  0  0  0  0  0  0  0  0
    1.6645    0.9609    0.0000 C   0  0  0  0  0  0  0  0  0  0  0  0
    2.4970    1.4411    0.0000 C   0  0  0  0  0  0  0  0  0  0  0  0
    3.3289    0.9606    0.0000 C   0  0  0  0  0  0  0  0  0  0  0  0
    0.0000    0.0000    0.0000 C   0  0  0  0  0  0  0  0  0  0  0  0
   -0.8325   -0.4802    0.0000 C   0  0  0  0  0  0  0  0  0  0  0  0
   -1.6643    0.0003    0.0000 C   0  0  0  0  0  0  0  0  0  0  0  0
   -1.6641    0.9616    0.0000 C   0  0  0  0  0  0  0  0  0  0  0  0
   -0.8321    1.4418    0.0000 C   0  0  0  0  0  0  0  0  0  0  0  0
    0.0002    0.9613    0.0000 C   0  0  0  0  0  0  0  0  0  0  0  0
    0.8323   -0.4805    0.0000 N   0  0  0  0  0  0  0  0  0  0  0  0
   -2.4964   -0.4798    0.0000 N   0  0  0  0  0  0  0  0  0  0  0  0
   -3.4100   -0.1827    0.0000 O   0  0  0  0  0  0  0  0  0  0  0  0
   -2.2969   -1.4195    0.0000 O   0  0  0  0  0  0  0  0  0  0  0  0
    4.1946   -0.5009    0.0000 H   0  0  0  0  0  0  0  0  0  0  0  0
    2.4966   -1.4809    0.0000 H   0  0  0  0  0  0  0  0  0  0  0  0
    2.4971    2.4411    0.0000 H   0  0  0  0  0  0  0  0  0  0  0  0
    4.1950    1.4604    0.0000 H   0  0  0  0  0  0  0  0  0  0  0  0
   -0.8328   -1.4802    0.0000 H   0  0  0  0  0  0  0  0  0  0  0  0
   -2.5301    1.4617    0.0000 H   0  0  0  0  0  0  0  0  0  0  0  0
   -0.8321    2.4418    0.0000 H   0  0  0  0  0  0  0  0  0  0  0  0
    0.8323   -1.4805    0.0000 H   0  0  0  0  0  0  0  0  0  0  0  0
  1  2  2  0  0  0  0
  1 17  1  0  0  0  0
  2  3  1  0  0  0  0
  2 18  1  0  0  0  0
  3  4  2  0  0  0  0
  3 13  1  0  0  0  0
  4  5  1  0  0  0  0
  4 12  1  0  0  0  0
  5  6  2  0  0  0  0
  5 19  1  0  0  0  0
  6  1  1  0  0  0  0
  6 20  1  0  0  0  0
  7  8  2  0  0  0  0
  8  9  1  0  0  0  0
  8 21  1  0  0  0  0
  9 10  2  0  0  0  0
  9 14  1  0  0  0  0
 10 11  1  0  0  0  0
 10 22  1  0  0  0  0
 11 12  2  0  0  0  0
 11 23  1  0  0  0  0
 12  7  1  0  0  0  0
 13  7  1  0  0  0  0
 13 24  1  0  0  0  0
 14 16  2  0  0  0  0
 15 14  2  0  0  0  0
M  END
>  <activity>
Active

$$$$
mutag_d84
 OpenBabel01191712022D

 18 18  0  0  0  0  0  0  0  0999 V2000
   -0.0000   -0.0000    0.0000 C   0  0  0  0  0  0  0  0  0  0  0  0
   -0.8660    0.5000    0.0000 C   0  0  0  0  0  0  0  0  0  0  0  0
   -0.8660    1.5000    0.0000 C   0  0  0  0  0  0  0  0  0  0  0  0
   -0.0000    2.0000    0.0000 C   0  0  0  0  0  0  0  0  0  0  0  0
    0.8660    1.5000    0.0000 C   0  0  0  0  0  0  0  0  0  0  0  0
    0.8660    0.5000    0.0000 C   0  0  0  0  0  0  0  0  0  0  0  0
   -0.0000   -1.0000    0.0000 H   0  0  0  0  0  0  0  0  0  0  0  0
   -1.7321    2.0000    0.0000 H   0  0  0  0  0  0  0  0  0  0  0  0
   -0.0000    3.0000    0.0000 H   0  0  0  0  0  0  0  0  0  0  0  0
    1.7321    0.0000    0.0000 H   0  0  0  0  0  0  0  0  0  0  0  0
    1.7321    2.0000    0.0000 C   0  0  0  0  0  0  0  0  0  0  0  0
    2.5981    1.5000    0.0000 C   0  0  0  0  0  0  0  0  0  0  0  0
    1.7321    3.0000    0.0000 H   0  0  0  0  0  0  0  0  0  0  0  0
    2.5981    0.5000    0.0000 H   0  0  0  0  0  0  0  0  0  0  0  0
    3.4641    2.0000    0.0000 H   0  0  0  0  0  0  0  0  0  0  0  0
   -1.7321   -0.0000    0.0000 N   0  0  0  0  0  0  0  0  0  0  0  0
   -2.5981    0.5000    0.0000 O   0  0  0  0  0  0  0  0  0  0  0  0
   -1.7321   -1.0000    0.0000 O   0  0  0  0  0  0  0  0  0  0  0  0
  1  2  2  0  0  0  0
  1  7  1  0  0  0  0
  2  3  1  0  0  0  0
  2 16  1  0  0  0  0
  3  4  2  0  0  0  0
  3  8  1  0  0  0  0
  4  5  1  0  0  0  0
  4  9  1  0  0  0  0
  5  6  2  0  0  0  0
  6  1  1  0  0  0  0
  6 10  1  0  0  0  0
 11  5  1  0  0  0  0
 11 12  2  0  0  0  0
 11 13  1  0  0  0  0
 12 14  1  0  0  0  0
 12 15  1  0  0  0  0
 16 17  2  0  0  0  0
 16 18  2  0  0  0  0
M  END
>  <activity>
Inactive

$$$$
mutag_d85
 OpenBabel01191712022D

 34 38  0  0  0  0  0  0  0  0999 V2000
   -3.2052    2.7751    0.0000 C   0  0  0  0  0  0  0  0  0  0  0  0
   -2.4040    3.2378    0.0000 C   0  0  0  0  0  0  0  0  0  0  0  0
   -1.6027    2.7752    0.0000 C   0  0  0  0  0  0  0  0  0  0  0  0
   -1.6026    1.8500    0.0000 C   0  0  0  0  0  0  0  0  0  0  0  0
   -2.4038    1.3874    0.0000 C   0  0  0  0  0  0  0  0  0  0  0  0
   -3.2051    1.8499    0.0000 C   0  0  0  0  0  0  0  0  0  0  0  0
   -0.8016    1.3877    0.0000 C   0  0  0  0  0  0  0  0  0  0  0  0
   -0.8014    0.4627    0.0000 C   0  0  0  0  0  0  0  0  0  0  0  0
   -1.6023   -0.0003    0.0000 C   0  0  0  0  0  0  0  0  0  0  0  0
   -2.4036    0.4624    0.0000 C   0  0  0  0  0  0  0  0  0  0  0  0
   -0.0003    1.8503    0.0000 C   0  0  0  0  0  0  0  0  0  0  0  0
    0.8010    1.3880    0.0000 C   0  0  0  0  0  0  0  0  0  0  0  0
    0.8012    0.4630    0.0000 C   0  0  0  0  0  0  0  0  0  0  0  0
   -0.0000   -0.0000    0.0000 C   0  0  0  0  0  0  0  0  0  0  0  0
    1.6020    1.8506    0.0000 C   0  0  0  0  0  0  0  0  0  0  0  0
    2.4032    1.3883    0.0000 C   0  0  0  0  0  0  0  0  0  0  0  0
    2.4034    0.4633    0.0000 C   0  0  0  0  0  0  0  0  0  0  0  0
    1.6024    0.0006    0.0000 C   0  0  0  0  0  0  0  0  0  0  0  0
   -1.6021   -0.9253    0.0000 C   0  0  0  0  0  0  0  0  0  0  0  0
    0.0002   -0.9250    0.0000 C   0  0  0  0  0  0  0  0  0  0  0  0
   -4.0483    3.2618    0.0000 H   0  0  0  0  0  0  0  0  0  0  0  0
   -2.4040    4.2113    0.0000 H   0  0  0  0  0  0  0  0  0  0  0  0
   -0.7596    3.2621    0.0000 H   0  0  0  0  0  0  0  0  0  0  0  0
   -4.0481    1.3631    0.0000 H   0  0  0  0  0  0  0  0  0  0  0  0
   -3.2336   -0.0169    0.0000 H   0  0  0  0  0  0  0  0  0  0  0  0
   -0.0005    2.8087    0.0000 H   0  0  0  0  0  0  0  0  0  0  0  0
    1.6019    2.8241    0.0000 H   0  0  0  0  0  0  0  0  0  0  0  0
    3.2462    1.8752    0.0000 H   0  0  0  0  0  0  0  0  0  0  0  0
    3.2465   -0.0233    0.0000 H   0  0  0  0  0  0  0  0  0  0  0  0
    1.6026   -0.9729    0.0000 H   0  0  0  0  0  0  0  0  0  0  0  0
    0.6780   -1.6026    0.0000 H   0  0  0  0  0  0  0  0  0  0  0  0
   -2.2561   -1.5795    0.0000 N   0  0  0  0  0  0  0  0  0  0  0  0
   -3.0803   -1.1597    0.0000 O   0  0  0  0  0  0  0  0  0  0  0  0
   -2.2075   -2.5033    0.0000 O   0  0  0  0  0  0  0  0  0  0  0  0
  1  2  2  0  0  0  0
  1 21  1  0  0  0  0
  2  3  1  0  0  0  0
  2 22  1  0  0  0  0
  3  4  2  0  0  0  0
  3 23  1  0  0  0  0
  4  5  1  0  0  0  0
  4  7  1  0  0  0  0
  5  6  2  0  0  0  0
  6  1  1  0  0  0  0
  6 24  1  0  0  0  0
  7  8  2  0  0  0  0
  7 11  1  0  0  0  0
  8  9  1  0  0  0  0
  9 10  2  0  0  0  0
 10  5  1  0  0  0  0
 10 25  1  0  0  0  0
 11 12  2  0  0  0  0
 11 26  1  0  0  0  0
 12 13  1  0  0  0  0
 12 15  1  0  0  0  0
 13 14  2  0  0  0  0
 14  8  1  0  0  0  0
 15 16  2  0  0  0  0
 15 27  1  0  0  0  0
 16 17  1  0  0  0  0
 16 28  1  0  0  0  0
 17 18  2  0  0  0  0
 17 29  1  0  0  0  0
 18 13  1  0  0  0  0
 18 30  1  0  0  0  0
 19  9  1  0  0  0  0
 19 20  2  0  0  0  0
 20 14  1  0  0  0  0
 20 31  1  0  0  0  0
 32 19  1  0  0  0  0
 32 34  2  0  0  0  0
 33 32  2  0  0  0  0
M  END
>  <activity>
Active

$$$$
mutag_d86
 OpenBabel01191712022D

 34 38  0  0  0  0  0  0  0  0999 V2000
   -3.2052    2.7751    0.0000 C   0  0  0  0  0  0  0  0  0  0  0  0
   -2.4040    3.2378    0.0000 C   0  0  0  0  0  0  0  0  0  0  0  0
   -1.6027    2.7752    0.0000 C   0  0  0  0  0  0  0  0  0  0  0  0
   -1.6026    1.8500    0.0000 C   0  0  0  0  0  0  0  0  0  0  0  0
   -2.4038    1.3874    0.0000 C   0  0  0  0  0  0  0  0  0  0  0  0
   -3.2051    1.8499    0.0000 C   0  0  0  0  0  0  0  0  0  0  0  0
   -0.8016    1.3877    0.0000 C   0  0  0  0  0  0  0  0  0  0  0  0
   -0.8014    0.4627    0.0000 C   0  0  0  0  0  0  0  0  0  0  0  0
   -1.6023   -0.0003    0.0000 C   0  0  0  0  0  0  0  0  0  0  0  0
   -2.4036    0.4624    0.0000 C   0  0  0  0  0  0  0  0  0  0  0  0
   -0.0003    1.8503    0.0000 C   0  0  0  0  0  0  0  0  0  0  0  0
    0.8010    1.3880    0.0000 C   0  0  0  0  0  0  0  0  0  0  0  0
    0.8012    0.4630    0.0000 C   0  0  0  0  0  0  0  0  0  0  0  0
   -0.0000   -0.0000    0.0000 C   0  0  0  0  0  0  0  0  0  0  0  0
    1.6020    1.8506    0.0000 C   0  0  0  0  0  0  0  0  0  0  0  0
    2.4032    1.3883    0.0000 C   0  0  0  0  0  0  0  0  0  0  0  0
    2.4034    0.4633    0.0000 C   0  0  0  0  0  0  0  0  0  0  0  0
    1.6024    0.0006    0.0000 C   0  0  0  0  0  0  0  0  0  0  0  0
   -1.6021   -0.9253    0.0000 C   0  0  0  0  0  0  0  0  0  0  0  0
    0.0002   -0.9250    0.0000 C   0  0  0  0  0  0  0  0  0  0  0  0
   -4.0483    3.2618    0.0000 H   0  0  0  0  0  0  0  0  0  0  0  0
   -2.4040    4.2113    0.0000 H   0  0  0  0  0  0  0  0  0  0  0  0
   -0.7596    3.2621    0.0000 H   0  0  0  0  0  0  0  0  0  0  0  0
   -4.0481    1.3631    0.0000 H   0  0  0  0  0  0  0  0  0  0  0  0
   -0.0005    2.8087    0.0000 H   0  0  0  0  0  0  0  0  0  0  0  0
    1.6019    2.8241    0.0000 H   0  0  0  0  0  0  0  0  0  0  0  0
    3.2462    1.8752    0.0000 H   0  0  0  0  0  0  0  0  0  0  0  0
    3.2465   -0.0233    0.0000 H   0  0  0  0  0  0  0  0  0  0  0  0
    1.6026   -0.9729    0.0000 H   0  0  0  0  0  0  0  0  0  0  0  0
    0.6780   -1.6026    0.0000 H   0  0  0  0  0  0  0  0  0  0  0  0
   -2.2796   -1.6031    0.0000 H   0  0  0  0  0  0  0  0  0  0  0  0
   -3.2047   -0.0002    0.0000 N   0  0  0  0  0  0  0  0  0  0  0  0
   -3.7485    0.7481    0.0000 O   0  0  0  0  0  0  0  0  0  0  0  0
   -3.5808   -0.8453    0.0000 O   0  0  0  0  0  0  0  0  0  0  0  0
  1  2  2  0  0  0  0
  1 21  1  0  0  0  0
  2  3  1  0  0  0  0
  2 22  1  0  0  0  0
  3  4  2  0  0  0  0
  3 23  1  0  0  0  0
  4  5  1  0  0  0  0
  4  7  1  0  0  0  0
  5  6  2  0  0  0  0
  6  1  1  0  0  0  0
  6 24  1  0  0  0  0
  7  8  2  0  0  0  0
  7 11  1  0  0  0  0
  8  9  1  0  0  0  0
  9 10  2  0  0  0  0
 10  5  1  0  0  0  0
 11 12  2  0  0  0  0
 11 25  1  0  0  0  0
 12 13  1  0  0  0  0
 12 15  1  0  0  0  0
 13 14  2  0  0  0  0
 14  8  1  0  0  0  0
 15 16  2  0  0  0  0
 15 26  1  0  0  0  0
 16 17  1  0  0  0  0
 16 27  1  0  0  0  0
 17 18  2  0  0  0  0
 17 28  1  0  0  0  0
 18 13  1  0  0  0  0
 18 29  1  0  0  0  0
 19  9  1  0  0  0  0
 19 20  2  0  0  0  0
 19 31  1  0  0  0  0
 20 14  1  0  0  0  0
 20 30  1  0  0  0  0
 32 10  1  0  0  0  0
 32 34  2  0  0  0  0
 33 32  2  0  0  0  0
M  END
>  <activity>
Active

$$$$
mutag_d87
 OpenBabel01191712022D

 23 25  0  0  0  0  0  0  0  0999 V2000
    3.3287   -0.0007    0.0000 C   0  0  0  0  0  0  0  0  0  0  0  0
    2.4967   -0.4809    0.0000 C   0  0  0  0  0  0  0  0  0  0  0  0
    1.6643   -0.0003    0.0000 C   0  0  0  0  0  0  0  0  0  0  0  0
    1.6645    0.9609    0.0000 C   0  0  0  0  0  0  0  0  0  0  0  0
    2.4970    1.4411    0.0000 C   0  0  0  0  0  0  0  0  0  0  0  0
    3.3289    0.9606    0.0000 C   0  0  0  0  0  0  0  0  0  0  0  0
    0.0000   -0.0000    0.0000 C   0  0  0  0  0  0  0  0  0  0  0  0
   -0.8325   -0.4802    0.0000 C   0  0  0  0  0  0  0  0  0  0  0  0
   -1.6643    0.0003    0.0000 C   0  0  0  0  0  0  0  0  0  0  0  0
   -1.6641    0.9616    0.0000 C   0  0  0  0  0  0  0  0  0  0  0  0
   -0.8321    1.4418    0.0000 C   0  0  0  0  0  0  0  0  0  0  0  0
    0.0002    0.9613    0.0000 C   0  0  0  0  0  0  0  0  0  0  0  0
    0.8323   -0.4805    0.0000 O   0  0  0  0  0  0  0  0  0  0  0  0
   -2.4964   -0.4798    0.0000 N   0  0  0  0  0  0  0  0  0  0  0  0
   -3.4100   -0.1827    0.0000 O   0  0  0  0  0  0  0  0  0  0  0  0
   -2.2969   -1.4195    0.0000 O   0  0  0  0  0  0  0  0  0  0  0  0
    4.1946   -0.5009    0.0000 H   0  0  0  0  0  0  0  0  0  0  0  0
    2.4966   -1.4809    0.0000 H   0  0  0  0  0  0  0  0  0  0  0  0
    2.4971    2.4411    0.0000 H   0  0  0  0  0  0  0  0  0  0  0  0
    4.1950    1.4604    0.0000 H   0  0  0  0  0  0  0  0  0  0  0  0
   -0.8328   -1.4802    0.0000 H   0  0  0  0  0  0  0  0  0  0  0  0
   -2.5301    1.4617    0.0000 H   0  0  0  0  0  0  0  0  0  0  0  0
   -0.8321    2.4418    0.0000 H   0  0  0  0  0  0  0  0  0  0  0  0
  1  2  2  0  0  0  0
  1 17  1  0  0  0  0
  2  3  1  0  0  0  0
  2 18  1  0  0  0  0
  3  4  2  0  0  0  0
  3 13  1  0  0  0  0
  4  5  1  0  0  0  0
  4 12  1  0  0  0  0
  5  6  2  0  0  0  0
  5 19  1  0  0  0  0
  6  1  1  0  0  0  0
  6 20  1  0  0  0  0
  7  8  2  0  0  0  0
  8  9  1  0  0  0  0
  8 21  1  0  0  0  0
  9 10  2  0  0  0  0
  9 14  1  0  0  0  0
 10 11  1  0  0  0  0
 10 22  1  0  0  0  0
 11 12  2  0  0  0  0
 11 23  1  0  0  0  0
 12  7  1  0  0  0  0
 13  7  1  0  0  0  0
 14 15  2  0  0  0  0
 14 16  2  0  0  0  0
M  END
>  <activity>
Active

$$$$
mutag_d88
 OpenBabel01191712022D

 19 19  0  0  0  0  0  0  0  0999 V2000
    0.0000   -0.0000    0.0000 C   0  0  0  0  0  0  0  0  0  0  0  0
    0.8660   -0.5000    0.0000 C   0  0  0  0  0  0  0  0  0  0  0  0
    0.8660   -1.5000    0.0000 C   0  0  0  0  0  0  0  0  0  0  0  0
    0.0000   -2.0000    0.0000 C   0  0  0  0  0  0  0  0  0  0  0  0
   -0.8660   -1.5000    0.0000 C   0  0  0  0  0  0  0  0  0  0  0  0
   -0.8660   -0.5000    0.0000 C   0  0  0  0  0  0  0  0  0  0  0  0
    0.0000    1.0000    0.0000 H   0  0  0  0  0  0  0  0  0  0  0  0
    1.7321   -2.0000    0.0000 H   0  0  0  0  0  0  0  0  0  0  0  0
    0.0000   -3.0000    0.0000 H   0  0  0  0  0  0  0  0  0  0  0  0
   -1.7321   -0.0000    0.0000 H   0  0  0  0  0  0  0  0  0  0  0  0
   -1.7321   -2.0000    0.0000 C   0  0  0  0  0  0  0  0  0  0  0  0
   -2.5981   -1.5000    0.0000 C   0  0  0  0  0  0  0  0  0  0  0  0
   -3.5981   -1.5000    0.0000 H   0  0  0  0  0  0  0  0  0  0  0  0
   -3.0981   -2.3660    0.0000 H   0  0  0  0  0  0  0  0  0  0  0  0
   -2.5981   -0.5000    0.0000 H   0  0  0  0  0  0  0  0  0  0  0  0
   -1.7321   -3.0000    0.0000 O   0  0  0  0  0  0  0  0  0  0  0  0
    1.7321   -0.0000    0.0000 N   0  0  0  0  0  0  0  0  0  0  0  0
    2.5981   -0.5000    0.0000 O   0  0  0  0  0  0  0  0  0  0  0  0
    1.7321    1.0000    0.0000 O   0  0  0  0  0  0  0  0  0  0  0  0
  1  2  2  0  0  0  0
  1  7  1  0  0  0  0
  2  3  1  0  0  0  0
  2 17  1  0  0  0  0
  3  4  2  0  0  0  0
  3  8  1  0  0  0  0
  4  5  1  0  0  0  0
  4  9  1  0  0  0  0
  5  6  2  0  0  0  0
  6  1  1  0  0  0  0
  6 10  1  0  0  0  0
 11  5  1  0  0  0  0
 11 12  1  0  0  0  0
 11 16  2  0  0  0  0
 12 13  1  0  0  0  0
 12 14  1  0  0  0  0
 12 15  1  0  0  0  0
 17 18  2  0  0  0  0
 17 19  2  0  0  0  0
M  END
>  <activity>
Inactive

$$$$
mutag_d89
 OpenBabel01191712022D

 20 21  0  0  0  0  0  0  0  0999 V2000
   -3.2709   -0.5000    0.0000 C   0  0  0  0  0  0  0  0  0  0  0  0
   -2.4049   -1.0000    0.0000 C   0  0  0  0  0  0  0  0  0  0  0  0
   -1.5388   -0.5000    0.0000 C   0  0  0  0  0  0  0  0  0  0  0  0
   -1.5388    0.5000    0.0000 C   0  0  0  0  0  0  0  0  0  0  0  0
   -2.4049    1.0000    0.0000 C   0  0  0  0  0  0  0  0  0  0  0  0
   -3.2709    0.5000    0.0000 C   0  0  0  0  0  0  0  0  0  0  0  0
   -0.5878   -0.8090    0.0000 N   0  0  0  0  0  0  0  0  0  0  0  0
    0.0000    0.0000    0.0000 N   0  0  0  0  0  0  0  0  0  0  0  0
   -0.5878    0.8090    0.0000 C   0  0  0  0  0  0  0  0  0  0  0  0
   -0.2788   -1.7601    0.0000 C   0  0  0  0  0  0  0  0  0  0  0  0
   -2.4049   -2.0000    0.0000 N   0  0  0  0  0  0  0  0  0  0  0  0
   -3.2709   -2.5000    0.0000 O   0  0  0  0  0  0  0  0  0  0  0  0
   -1.5388   -2.5000    0.0000 O   0  0  0  0  0  0  0  0  0  0  0  0
   -4.1369   -1.0000    0.0000 H   0  0  0  0  0  0  0  0  0  0  0  0
   -2.4049    2.0000    0.0000 H   0  0  0  0  0  0  0  0  0  0  0  0
   -4.1369    1.0000    0.0000 H   0  0  0  0  0  0  0  0  0  0  0  0
   -0.2788    1.7601    0.0000 H   0  0  0  0  0  0  0  0  0  0  0  0
    0.4644   -2.4292    0.0000 H   0  0  0  0  0  0  0  0  0  0  0  0
    0.6723   -1.4511    0.0000 H   0  0  0  0  0  0  0  0  0  0  0  0
   -0.9479   -2.5032    0.0000 H   0  0  0  0  0  0  0  0  0  0  0  0
  1  2  2  0  0  0  0
  1 14  1  0  0  0  0
  2  3  1  0  0  0  0
  2 11  1  0  0  0  0
  3  4  2  0  0  0  0
  3  7  1  0  0  0  0
  4  5  1  0  0  0  0
  4  9  1  0  0  0  0
  5  6  2  0  0  0  0
  5 15  1  0  0  0  0
  6  1  1  0  0  0  0
  6 16  1  0  0  0  0
  7  8  1  0  0  0  0
  7 10  1  0  0  0  0
  9  8  2  0  0  0  0
  9 17  1  0  0  0  0
 10 18  1  0  0  0  0
 10 19  1  0  0  0  0
 10 20  1  0  0  0  0
 11 12  2  0  0  0  0
 11 13  2  0  0  0  0
M  END
>  <activity>
Inactive

$$$$
mutag_d9
 OpenBabel01191712022D

 17 18  0  0  0  0  0  0  0  0999 V2000
    1.7321    0.0000    0.0000 C   0  0  0  0  0  0  0  0  0  0  0  0
    0.8660    0.5000    0.0000 C   0  0  0  0  0  0  0  0  0  0  0  0
    0.0000   -0.0000    0.0000 C   0  0  0  0  0  0  0  0  0  0  0  0
    0.0000   -1.0000    0.0000 C   0  0  0  0  0  0  0  0  0  0  0  0
    0.8660   -1.5000    0.0000 C   0  0  0  0  0  0  0  0  0  0  0  0
    1.7321   -1.0000    0.0000 C   0  0  0  0  0  0  0  0  0  0  0  0
   -0.9511   -1.3090    0.0000 N   0  0  0  0  0  0  0  0  0  0  0  0
   -1.5388   -0.5000    0.0000 C   0  0  0  0  0  0  0  0  0  0  0  0
   -0.9511    0.3090    0.0000 N   0  0  0  0  0  0  0  0  0  0  0  0
    2.5981   -1.5000    0.0000 N   0  0  0  0  0  0  0  0  0  0  0  0
    2.5981   -2.5000    0.0000 O   0  0  0  0  0  0  0  0  0  0  0  0
    3.4641   -1.0000    0.0000 O   0  0  0  0  0  0  0  0  0  0  0  0
    2.5981    0.5000    0.0000 H   0  0  0  0  0  0  0  0  0  0  0  0
    0.8660    1.5000    0.0000 H   0  0  0  0  0  0  0  0  0  0  0  0
    0.8660   -2.5000    0.0000 H   0  0  0  0  0  0  0  0  0  0  0  0
   -2.5388   -0.5000    0.0000 H   0  0  0  0  0  0  0  0  0  0  0  0
   -1.2601    1.2601    0.0000 H   0  0  0  0  0  0  0  0  0  0  0  0
  1  2  2  0  0  0  0
  1 13  1  0  0  0  0
  2  3  1  0  0  0  0
  2 14  1  0  0  0  0
  3  4  2  0  0  0  0
  4  5  1  0  0  0  0
  4  7  1  0  0  0  0
  5  6  2  0  0  0  0
  5 15  1  0  0  0  0
  6  1  1  0  0  0  0
  6 10  1  0  0  0  0
  7  8  2  0  0  0  0
  8  9  1  0  0  0  0
  8 16  1  0  0  0  0
  9  3  1  0  0  0  0
  9 17  1  0  0  0  0
 10 11  2  0  0  0  0
 12 10  2  0  0  0  0
M  END
>  <activity>
Inactive

$$$$
mutag_d90
 OpenBabel01191712022D

 34 38  0  0  0  0  0  0  0  0999 V2000
    1.6077    1.8151    0.0000 C   0  0  0  0  0  0  0  0  0  0  0  0
    2.4017    1.3429    0.0000 C   0  0  0  0  0  0  0  0  0  0  0  0
    2.3897    0.4250    0.0000 C   0  0  0  0  0  0  0  0  0  0  0  0
    1.5836   -0.0207    0.0000 C   0  0  0  0  0  0  0  0  0  0  0  0
    0.7950    0.4459    0.0000 C   0  0  0  0  0  0  0  0  0  0  0  0
    0.8070    1.3638    0.0000 C   0  0  0  0  0  0  0  0  0  0  0  0
    1.6196    2.7315    0.0000 H   0  0  0  0  0  0  0  0  0  0  0  0
    3.2013    1.7909    0.0000 H   0  0  0  0  0  0  0  0  0  0  0  0
    0.0187    1.8313    0.0000 H   0  0  0  0  0  0  0  0  0  0  0  0
    3.1728   -0.0415    0.0000 C   0  0  0  0  0  0  0  0  0  0  0  0
    3.1609   -0.9544    0.0000 C   0  0  0  0  0  0  0  0  0  0  0  0
    2.3657   -1.4108    0.0000 C   0  0  0  0  0  0  0  0  0  0  0  0
    1.5717   -0.9336    0.0000 C   0  0  0  0  0  0  0  0  0  0  0  0
    3.9726    0.4061    0.0000 H   0  0  0  0  0  0  0  0  0  0  0  0
    3.9510   -1.4188    0.0000 H   0  0  0  0  0  0  0  0  0  0  0  0
    0.7710   -1.3899    0.0000 C   0  0  0  0  0  0  0  0  0  0  0  0
   -0.0119   -0.9129    0.0000 C   0  0  0  0  0  0  0  0  0  0  0  0
    0.0000   -0.0000    0.0000 C   0  0  0  0  0  0  0  0  0  0  0  0
    2.3537   -2.3287    0.0000 C   0  0  0  0  0  0  0  0  0  0  0  0
    1.5587   -2.7695    0.0000 C   0  0  0  0  0  0  0  0  0  0  0  0
    0.7590   -2.3078    0.0000 C   0  0  0  0  0  0  0  0  0  0  0  0
    3.1438   -2.7931    0.0000 H   0  0  0  0  0  0  0  0  0  0  0  0
    1.5508   -3.6860    0.0000 H   0  0  0  0  0  0  0  0  0  0  0  0
   -0.8085   -1.3590    0.0000 C   0  0  0  0  0  0  0  0  0  0  0  0
   -1.5931   -0.8922    0.0000 C   0  0  0  0  0  0  0  0  0  0  0  0
   -1.5811    0.0207    0.0000 C   0  0  0  0  0  0  0  0  0  0  0  0
   -0.7846    0.4668    0.0000 C   0  0  0  0  0  0  0  0  0  0  0  0
   -0.8205   -2.2762    0.0000 H   0  0  0  0  0  0  0  0  0  0  0  0
   -2.3934   -1.3404    0.0000 H   0  0  0  0  0  0  0  0  0  0  0  0
   -2.3694    0.4897    0.0000 H   0  0  0  0  0  0  0  0  0  0  0  0
   -0.7726    1.3840    0.0000 H   0  0  0  0  0  0  0  0  0  0  0  0
   -0.0390   -2.7616    0.0000 N   0  0  0  0  0  0  0  0  0  0  0  0
   -0.9566   -2.7382    0.0000 O   0  0  0  0  0  0  0  0  0  0  0  0
    0.3996   -3.5681    0.0000 O   0  0  0  0  0  0  0  0  0  0  0  0
  1  2  2  0  0  0  0
  1  7  1  0  0  0  0
  2  3  1  0  0  0  0
  2  8  1  0  0  0  0
  3  4  2  0  0  0  0
  3 10  1  0  0  0  0
  4  5  1  0  0  0  0
  5  6  2  0  0  0  0
  6  1  1  0  0  0  0
  6  9  1  0  0  0  0
 10 11  2  0  0  0  0
 10 14  1  0  0  0  0
 11 12  1  0  0  0  0
 11 15  1  0  0  0  0
 12 13  2  0  0  0  0
 12 19  1  0  0  0  0
 13  4  1  0  0  0  0
 13 16  1  0  0  0  0
 16 17  1  0  0  0  0
 17 18  2  0  0  0  0
 17 24  1  0  0  0  0
 18  5  1  0  0  0  0
 19 20  2  0  0  0  0
 19 22  1  0  0  0  0
 20 21  1  0  0  0  0
 20 23  1  0  0  0  0
 21 16  2  0  0  0  0
 24 25  2  0  0  0  0
 24 28  1  0  0  0  0
 25 26  1  0  0  0  0
 25 29  1  0  0  0  0
 26 27  2  0  0  0  0
 26 30  1  0  0  0  0
 27 18  1  0  0  0  0
 27 31  1  0  0  0  0
 32 21  1  0  0  0  0
 32 34  2  0  0  0  0
 33 32  2  0  0  0  0
M  END
>  <activity>
Active

$$$$
mutag_d91
 OpenBabel01191712022D

 40 44  0  0  0  0  0  0  0  0999 V2000
    4.1408   -2.3845    0.0000 C   0  0  3  0  0  0  0  0  0  0  0  0
    3.3139   -2.8650    0.0000 C   0  0  3  0  0  0  0  0  0  0  0  0
    2.4844   -2.3892    0.0000 C   0  0  0  0  0  0  0  0  0  0  0  0
    2.4817   -1.4328    0.0000 C   0  0  0  0  0  0  0  0  0  0  0  0
    3.3086   -0.9524    0.0000 C   0  0  0  0  0  0  0  0  0  0  0  0
    4.1381   -1.4282    0.0000 C   0  0  0  0  0  0  0  0  0  0  0  0
    1.6520   -2.8700    0.0000 C   0  0  0  0  0  0  0  0  0  0  0  0
    0.8248   -2.3924    0.0000 C   0  0  0  0  0  0  0  0  0  0  0  0
    0.8299   -1.4339    0.0000 C   0  0  0  0  0  0  0  0  0  0  0  0
    1.6545   -0.9552    0.0000 C   0  0  0  0  0  0  0  0  0  0  0  0
    0.0030   -2.8661    0.0000 C   0  0  0  0  0  0  0  0  0  0  0  0
   -0.8197   -2.3911    0.0000 C   0  0  0  0  0  0  0  0  0  0  0  0
   -0.8297   -1.4371    0.0000 C   0  0  0  0  0  0  0  0  0  0  0  0
    0.0072   -0.9590    0.0000 C   0  0  0  0  0  0  0  0  0  0  0  0
    0.0000   -0.0000    0.0000 C   0  0  0  0  0  0  0  0  0  0  0  0
    0.8312    0.4683    0.0000 C   0  0  0  0  0  0  0  0  0  0  0  0
    1.6539   -0.0067    0.0000 C   0  0  0  0  0  0  0  0  0  0  0  0
   -1.6570   -0.9595    0.0000 C   0  0  0  0  0  0  0  0  0  0  0  0
   -1.6530   -0.0136    0.0000 C   0  0  0  0  0  0  0  0  0  0  0  0
   -0.8272    0.4776    0.0000 C   0  0  0  0  0  0  0  0  0  0  0  0
   -2.4771   -1.4308    0.0000 N   0  0  0  0  0  0  0  0  0  0  0  0
   -3.3749   -1.1329    0.0000 O   0  0  0  0  0  0  0  0  0  0  0  0
   -2.2862   -2.3572    0.0000 O   0  0  0  0  0  0  0  0  0  0  0  0
    3.7835   -0.1244    0.0000 H   0  0  0  0  0  0  0  0  0  0  0  0
    2.8291   -0.1271    0.0000 H   0  0  0  0  0  0  0  0  0  0  0  0
    5.0926   -1.4255    0.0000 H   0  0  0  0  0  0  0  0  0  0  0  0
    4.6131   -0.6003    0.0000 H   0  0  0  0  0  0  0  0  0  0  0  0
    1.6500   -3.8240    0.0000 H   0  0  0  0  0  0  0  0  0  0  0  0
    0.0010   -3.8201    0.0000 H   0  0  0  0  0  0  0  0  0  0  0  0
   -1.6433   -2.8725    0.0000 H   0  0  0  0  0  0  0  0  0  0  0  0
    0.8363    1.4223    0.0000 H   0  0  0  0  0  0  0  0  0  0  0  0
    2.4800    0.4705    0.0000 H   0  0  0  0  0  0  0  0  0  0  0  0
   -2.4813    0.4597    0.0000 H   0  0  0  0  0  0  0  0  0  0  0  0
   -0.8335    1.4316    0.0000 H   0  0  0  0  0  0  0  0  0  0  0  0
    4.6203   -3.2098    0.0000 O   0  0  0  0  0  0  0  0  0  0  0  0
    5.0953   -2.3819    0.0000 H   0  0  0  0  0  0  0  0  0  0  0  0
    2.8390   -3.6929    0.0000 O   0  0  0  0  0  0  0  0  0  0  0  0
    3.7935   -3.6903    0.0000 H   0  0  0  0  0  0  0  0  0  0  0  0
    4.1454   -4.0377    0.0000 H   0  0  0  0  0  0  0  0  0  0  0  0
    3.3185   -4.5182    0.0000 H   0  0  0  0  0  0  0  0  0  0  0  0
  1  2  1  0  0  0  0
  1 35  1  0  0  0  0
  1 36  1  0  0  0  0
  2  3  1  0  0  0  0
  2 37  1  0  0  0  0
  2 38  1  0  0  0  0
  3  4  2  0  0  0  0
  3  7  1  0  0  0  0
  4  5  1  0  0  0  0
  5  6  1  0  0  0  0
  5 24  1  0  0  0  0
  5 25  1  0  0  0  0
  6  1  1  0  0  0  0
  6 26  1  0  0  0  0
  6 27  1  0  0  0  0
  7  8  2  0  0  0  0
  7 28  1  0  0  0  0
  8  9  1  0  0  0  0
  8 11  1  0  0  0  0
  9 10  2  0  0  0  0
 10  4  1  0  0  0  0
 11 12  2  0  0  0  0
 11 29  1  0  0  0  0
 12 13  1  0  0  0  0
 12 30  1  0  0  0  0
 13 14  2  0  0  0  0
 13 18  1  0  0  0  0
 14  9  1  0  0  0  0
 14 15  1  0  0  0  0
 15 16  1  0  0  0  0
 16 17  2  0  0  0  0
 16 31  1  0  0  0  0
 17 10  1  0  0  0  0
 17 32  1  0  0  0  0
 18 19  2  0  0  0  0
 18 21  1  0  0  0  0
 19 20  1  0  0  0  0
 19 33  1  0  0  0  0
 20 15  2  0  0  0  0
 20 34  1  0  0  0  0
 21 22  2  0  0  0  0
 21 23  2  0  0  0  0
 35 39  1  0  0  0  0
 37 40  1  0  0  0  0
M  END
>  <activity>
Active

$$$$
mutag_d92
 OpenBabel01191712022D

 32 35  0  0  0  0  0  0  0  0999 V2000
   -3.1631    0.9757    0.0000 C   0  0  0  0  0  0  0  0  0  0  0  0
   -3.1631   -0.0243    0.0000 C   0  0  0  0  0  0  0  0  0  0  0  0
   -2.2971   -0.5243    0.0000 C   0  0  0  0  0  0  0  0  0  0  0  0
   -1.4311   -0.0243    0.0000 C   0  0  0  0  0  0  0  0  0  0  0  0
   -1.4311    0.9757    0.0000 C   0  0  0  0  0  0  0  0  0  0  0  0
   -2.2971    1.4757    0.0000 C   0  0  0  0  0  0  0  0  0  0  0  0
   -2.2971   -1.5243    0.0000 C   0  0  0  0  0  0  0  0  0  0  0  0
   -1.4311   -2.0243    0.0000 C   0  0  0  0  0  0  0  0  0  0  0  0
   -0.5651   -1.5243    0.0000 C   0  0  0  0  0  0  0  0  0  0  0  0
   -0.5651   -0.5243    0.0000 C   0  0  0  0  0  0  0  0  0  0  0  0
    0.0000    0.0000    0.0000 C   0  0  0  0  0  0  0  0  0  0  0  0
   -0.0576    0.7687    0.0000 C   0  0  0  0  0  0  0  0  0  0  0  0
   -0.6945    1.2029    0.0000 C   0  0  0  0  0  0  0  0  0  0  0  0
    0.1523   -1.6185    0.0000 C   0  0  0  0  0  0  0  0  0  0  0  0
    0.6732   -1.1164    0.0000 C   0  0  0  0  0  0  0  0  0  0  0  0
    0.6054   -0.3961    0.0000 C   0  0  0  0  0  0  0  0  0  0  0  0
    1.6108   -1.4640    0.0000 N   0  0  0  0  0  0  0  0  0  0  0  0
    1.7786   -2.4498    0.0000 O   0  0  0  0  0  0  0  0  0  0  0  0
    2.3807   -0.8258    0.0000 O   0  0  0  0  0  0  0  0  0  0  0  0
   -4.0292    1.4757    0.0000 H   0  0  0  0  0  0  0  0  0  0  0  0
   -4.0292   -0.5243    0.0000 H   0  0  0  0  0  0  0  0  0  0  0  0
   -2.2971    2.4757    0.0000 H   0  0  0  0  0  0  0  0  0  0  0  0
    0.4651   -2.5683    0.0000 H   0  0  0  0  0  0  0  0  0  0  0  0
    1.4618    0.1202    0.0000 H   0  0  0  0  0  0  0  0  0  0  0  0
   -0.0710    1.9847    0.0000 H   0  0  0  0  0  0  0  0  0  0  0  0
   -1.0598    2.1338    0.0000 H   0  0  0  0  0  0  0  0  0  0  0  0
    0.9424    0.7687    0.0000 H   0  0  0  0  0  0  0  0  0  0  0  0
    0.4424    1.6347    0.0000 H   0  0  0  0  0  0  0  0  0  0  0  0
   -1.9311   -2.8903    0.0000 H   0  0  0  0  0  0  0  0  0  0  0  0
   -0.9311   -2.8903    0.0000 H   0  0  0  0  0  0  0  0  0  0  0  0
   -3.0905   -0.9155    0.0000 H   0  0  0  0  0  0  0  0  0  0  0  0
   -2.5559   -2.4902    0.0000 H   0  0  0  0  0  0  0  0  0  0  0  0
  1  2  2  0  0  0  0
  1 20  1  0  0  0  0
  2  3  1  0  0  0  0
  2 21  1  0  0  0  0
  3  4  2  0  0  0  0
  3  7  1  0  0  0  0
  4  5  1  0  0  0  0
  5  6  2  0  0  0  0
  6  1  1  0  0  0  0
  6 22  1  0  0  0  0
  7  8  1  0  0  0  0
  7 31  1  0  0  0  0
  7 32  1  0  0  0  0
  8  9  1  0  0  0  0
  8 29  1  0  0  0  0
  8 30  1  0  0  0  0
  9 10  2  0  0  0  0
  9 14  1  0  0  0  0
 10  4  1  0  0  0  0
 10 11  1  0  0  0  0
 11 12  1  0  0  0  0
 12 13  1  0  0  0  0
 12 27  1  0  0  0  0
 12 28  1  0  0  0  0
 13  5  1  0  0  0  0
 13 25  1  0  0  0  0
 13 26  1  0  0  0  0
 14 15  2  0  0  0  0
 14 23  1  0  0  0  0
 15 16  1  0  0  0  0
 15 17  1  0  0  0  0
 16 11  2  0  0  0  0
 16 24  1  0  0  0  0
 17 18  2  0  0  0  0
 17 19  2  0  0  0  0
M  END
>  <activity>
Active

$$$$
mutag_d93
 OpenBabel01191712022D

 34 38  0  0  0  0  0  0  0  0999 V2000
    1.6089    1.8165    0.0000 C   0  0  0  0  0  0  0  0  0  0  0  0
    2.4035    1.3440    0.0000 C   0  0  0  0  0  0  0  0  0  0  0  0
    2.3915    0.4254    0.0000 C   0  0  0  0  0  0  0  0  0  0  0  0
    1.5849   -0.0207    0.0000 C   0  0  0  0  0  0  0  0  0  0  0  0
    0.7957    0.4462    0.0000 C   0  0  0  0  0  0  0  0  0  0  0  0
    0.8077    1.3648    0.0000 C   0  0  0  0  0  0  0  0  0  0  0  0
    1.6209    2.7336    0.0000 H   0  0  0  0  0  0  0  0  0  0  0  0
    3.2038    1.7922    0.0000 H   0  0  0  0  0  0  0  0  0  0  0  0
    0.0187    1.8327    0.0000 H   0  0  0  0  0  0  0  0  0  0  0  0
    3.1752   -0.0415    0.0000 C   0  0  0  0  0  0  0  0  0  0  0  0
    3.1633   -0.9551    0.0000 C   0  0  0  0  0  0  0  0  0  0  0  0
    2.3675   -1.4119    0.0000 C   0  0  0  0  0  0  0  0  0  0  0  0
    1.5729   -0.9343    0.0000 C   0  0  0  0  0  0  0  0  0  0  0  0
    3.9756    0.4064    0.0000 H   0  0  0  0  0  0  0  0  0  0  0  0
    3.9540   -1.4199    0.0000 H   0  0  0  0  0  0  0  0  0  0  0  0
    0.7716   -1.3910    0.0000 C   0  0  0  0  0  0  0  0  0  0  0  0
   -0.0119   -0.9136    0.0000 C   0  0  0  0  0  0  0  0  0  0  0  0
    0.0000   -0.0000    0.0000 C   0  0  0  0  0  0  0  0  0  0  0  0
    2.3555   -2.3305    0.0000 C   0  0  0  0  0  0  0  0  0  0  0  0
    1.5599   -2.7717    0.0000 C   0  0  0  0  0  0  0  0  0  0  0  0
    0.7596   -2.3096    0.0000 C   0  0  0  0  0  0  0  0  0  0  0  0
    1.5520   -3.6889    0.0000 H   0  0  0  0  0  0  0  0  0  0  0  0
   -0.0377   -2.7630    0.0000 H   0  0  0  0  0  0  0  0  0  0  0  0
   -0.8091   -1.3600    0.0000 C   0  0  0  0  0  0  0  0  0  0  0  0
   -1.5943   -0.8929    0.0000 C   0  0  0  0  0  0  0  0  0  0  0  0
   -1.5824    0.0207    0.0000 C   0  0  0  0  0  0  0  0  0  0  0  0
   -0.7852    0.4671    0.0000 C   0  0  0  0  0  0  0  0  0  0  0  0
   -0.8211   -2.2779    0.0000 H   0  0  0  0  0  0  0  0  0  0  0  0
   -2.3952   -1.3414    0.0000 H   0  0  0  0  0  0  0  0  0  0  0  0
   -2.3713    0.4900    0.0000 H   0  0  0  0  0  0  0  0  0  0  0  0
   -0.7732    1.3850    0.0000 H   0  0  0  0  0  0  0  0  0  0  0  0
    3.1363   -2.7973    0.0000 N   0  0  0  0  0  0  0  0  0  0  0  0
    3.3084   -3.6906    0.0000 O   0  0  0  0  0  0  0  0  0  0  0  0
    3.8240   -2.2016    0.0000 O   0  0  0  0  0  0  0  0  0  0  0  0
  1  2  2  0  0  0  0
  1  7  1  0  0  0  0
  2  3  1  0  0  0  0
  2  8  1  0  0  0  0
  3  4  2  0  0  0  0
  3 10  1  0  0  0  0
  4  5  1  0  0  0  0
  5  6  2  0  0  0  0
  6  1  1  0  0  0  0
  6  9  1  0  0  0  0
 10 11  2  0  0  0  0
 10 14  1  0  0  0  0
 11 12  1  0  0  0  0
 11 15  1  0  0  0  0
 12 13  2  0  0  0  0
 12 19  1  0  0  0  0
 13  4  1  0  0  0  0
 13 16  1  0  0  0  0
 16 17  1  0  0  0  0
 17 18  2  0  0  0  0
 17 24  1  0  0  0  0
 18  5  1  0  0  0  0
 19 20  2  0  0  0  0
 19 32  1  0  0  0  0
 20 21  1  0  0  0  0
 20 22  1  0  0  0  0
 21 16  2  0  0  0  0
 21 23  1  0  0  0  0
 24 25  2  0  0  0  0
 24 28  1  0  0  0  0
 25 26  1  0  0  0  0
 25 29  1  0  0  0  0
 26 27  2  0  0  0  0
 26 30  1  0  0  0  0
 27 18  1  0  0  0  0
 27 31  1  0  0  0  0
 32 33  2  0  0  0  0
 32 34  2  0  0  0  0
M  END
>  <activity>
Active

$$$$
mutag_d94
 OpenBabel01191712022D

 28 31  0  0  0  0  0  0  0  0999 V2000
    3.2513    0.9132    0.0000 C   0  0  0  0  0  0  0  0  0  0  0  0
    3.2444   -0.0286    0.0000 C   0  0  0  0  0  0  0  0  0  0  0  0
    2.4304   -0.4905    0.0000 C   0  0  0  0  0  0  0  0  0  0  0  0
    1.6233   -0.0105    0.0000 C   0  0  0  0  0  0  0  0  0  0  0  0
    1.6280    0.9237    0.0000 C   0  0  0  0  0  0  0  0  0  0  0  0
    2.4420    1.3855    0.0000 C   0  0  0  0  0  0  0  0  0  0  0  0
    4.0647    1.3747    0.0000 H   0  0  0  0  0  0  0  0  0  0  0  0
    4.0508   -0.5022    0.0000 H   0  0  0  0  0  0  0  0  0  0  0  0
    2.4478    2.3207    0.0000 H   0  0  0  0  0  0  0  0  0  0  0  0
    2.4228   -1.4198    0.0000 C   0  0  0  0  0  0  0  0  0  0  0  0
    1.6133   -1.8791    0.0000 C   0  0  0  0  0  0  0  0  0  0  0  0
    0.8023   -1.4142    0.0000 C   0  0  0  0  0  0  0  0  0  0  0  0
    0.8137   -0.4698    0.0000 C   0  0  0  0  0  0  0  0  0  0  0  0
    3.2290   -1.8937    0.0000 H   0  0  0  0  0  0  0  0  0  0  0  0
    0.0000   -0.0000    0.0000 C   0  0  0  0  0  0  0  0  0  0  0  0
    0.0169    0.9346    0.0000 C   0  0  0  0  0  0  0  0  0  0  0  0
    0.8264    1.3939    0.0000 C   0  0  0  0  0  0  0  0  0  0  0  0
   -0.7893    1.4085    0.0000 H   0  0  0  0  0  0  0  0  0  0  0  0
    0.8332    2.3291    0.0000 H   0  0  0  0  0  0  0  0  0  0  0  0
   -0.0117   -1.8760    0.0000 C   0  0  0  0  0  0  0  0  0  0  0  0
   -0.8088   -1.4032    0.0000 C   0  0  0  0  0  0  0  0  0  0  0  0
   -0.8140   -0.4618    0.0000 C   0  0  0  0  0  0  0  0  0  0  0  0
   -0.0184   -2.8112    0.0000 H   0  0  0  0  0  0  0  0  0  0  0  0
   -1.6201   -1.8683    0.0000 H   0  0  0  0  0  0  0  0  0  0  0  0
   -1.6234    0.0065    0.0000 H   0  0  0  0  0  0  0  0  0  0  0  0
    1.6112   -2.8098    0.0000 N   0  0  0  0  0  0  0  0  0  0  0  0
    0.6804   -2.8078    0.0000 O   0  0  0  0  0  0  0  0  0  0  0  0
    2.0748   -3.6169    0.0000 O   0  0  0  0  0  0  0  0  0  0  0  0
  1  2  2  0  0  0  0
  1  7  1  0  0  0  0
  2  3  1  0  0  0  0
  2  8  1  0  0  0  0
  3  4  2  0  0  0  0
  3 10  1  0  0  0  0
  4  5  1  0  0  0  0
  5  6  2  0  0  0  0
  6  1  1  0  0  0  0
  6  9  1  0  0  0  0
 10 11  2  0  0  0  0
 10 14  1  0  0  0  0
 11 12  1  0  0  0  0
 11 26  1  0  0  0  0
 12 13  2  0  0  0  0
 12 20  1  0  0  0  0
 13  4  1  0  0  0  0
 13 15  1  0  0  0  0
 15 16  1  0  0  0  0
 16 17  2  0  0  0  0
 16 18  1  0  0  0  0
 17  5  1  0  0  0  0
 17 19  1  0  0  0  0
 20 21  2  0  0  0  0
 20 23  1  0  0  0  0
 21 22  1  0  0  0  0
 21 24  1  0  0  0  0
 22 15  2  0  0  0  0
 22 25  1  0  0  0  0
 26 27  2  0  0  0  0
 26 28  2  0  0  0  0
M  END
>  <activity>
Active

$$$$
mutag_d95
 OpenBabel01191712022D

 24 25  0  0  0  0  0  0  0  0999 V2000
    1.7321   -1.0000    0.0000 C   0  0  0  0  0  0  0  0  0  0  0  0
    0.8660   -1.5000    0.0000 C   0  0  0  0  0  0  0  0  0  0  0  0
   -0.0000   -1.0000    0.0000 C   0  0  0  0  0  0  0  0  0  0  0  0
    0.0000   -0.0000    0.0000 C   0  0  0  0  0  0  0  0  0  0  0  0
    0.8660    0.5000    0.0000 C   0  0  0  0  0  0  0  0  0  0  0  0
    1.7321    0.0000    0.0000 C   0  0  0  0  0  0  0  0  0  0  0  0
    2.5981   -1.5000    0.0000 H   0  0  0  0  0  0  0  0  0  0  0  0
    0.8660    1.5000    0.0000 H   0  0  0  0  0  0  0  0  0  0  0  0
    2.5981    0.5000    0.0000 H   0  0  0  0  0  0  0  0  0  0  0  0
   -0.8660   -1.5000    0.0000 C   0  0  0  0  0  0  0  0  0  0  0  0
   -1.7321   -1.0000    0.0000 C   0  0  0  0  0  0  0  0  0  0  0  0
   -1.7321    0.0000    0.0000 C   0  0  0  0  0  0  0  0  0  0  0  0
   -0.8660    0.5000    0.0000 C   0  0  0  0  0  0  0  0  0  0  0  0
   -0.8660   -2.5000    0.0000 H   0  0  0  0  0  0  0  0  0  0  0  0
   -0.8660    1.5000    0.0000 H   0  0  0  0  0  0  0  0  0  0  0  0
   -2.5981    0.5000    0.0000 N   0  0  0  0  0  0  0  0  0  0  0  0
   -2.5981   -1.5000    0.0000 N   0  0  0  0  0  0  0  0  0  0  0  0
    0.8660   -2.5000    0.0000 N   0  0  0  0  0  0  0  0  0  0  0  0
   -2.5981    1.5000    0.0000 O   0  0  0  0  0  0  0  0  0  0  0  0
   -3.4641    0.0000    0.0000 O   0  0  0  0  0  0  0  0  0  0  0  0
   -3.4641   -1.0000    0.0000 O   0  0  0  0  0  0  0  0  0  0  0  0
   -2.5981   -2.5000    0.0000 O   0  0  0  0  0  0  0  0  0  0  0  0
   -0.0000   -3.0000    0.0000 O   0  0  0  0  0  0  0  0  0  0  0  0
    1.7321   -3.0000    0.0000 O   0  0  0  0  0  0  0  0  0  0  0  0
  1  2  2  0  0  0  0
  1  7  1  0  0  0  0
  2  3  1  0  0  0  0
  2 18  1  0  0  0  0
  3  4  2  0  0  0  0
  3 10  1  0  0  0  0
  4  5  1  0  0  0  0
  5  6  2  0  0  0  0
  5  8  1  0  0  0  0
  6  1  1  0  0  0  0
  6  9  1  0  0  0  0
 10 11  2  0  0  0  0
 10 14  1  0  0  0  0
 11 12  1  0  0  0  0
 11 17  1  0  0  0  0
 12 13  2  0  0  0  0
 12 16  1  0  0  0  0
 13  4  1  0  0  0  0
 13 15  1  0  0  0  0
 16 19  2  0  0  0  0
 16 20  2  0  0  0  0
 17 21  2  0  0  0  0
 17 22  2  0  0  0  0
 18 23  2  0  0  0  0
 18 24  2  0  0  0  0
M  END
>  <activity>
Active

$$$$
mutag_d96
 OpenBabel01191712022D

 32 35  0  0  0  0  0  0  0  0999 V2000
    3.2778    0.9207    0.0000 C   0  0  0  0  0  0  0  0  0  0  0  0
    3.2709   -0.0289    0.0000 C   0  0  0  0  0  0  0  0  0  0  0  0
    2.4502   -0.4945    0.0000 C   0  0  0  0  0  0  0  0  0  0  0  0
    1.6365   -0.0106    0.0000 C   0  0  0  0  0  0  0  0  0  0  0  0
    1.6413    0.9312    0.0000 C   0  0  0  0  0  0  0  0  0  0  0  0
    2.4620    1.3968    0.0000 C   0  0  0  0  0  0  0  0  0  0  0  0
    4.0978    1.3859    0.0000 H   0  0  0  0  0  0  0  0  0  0  0  0
    2.4677    2.3396    0.0000 H   0  0  0  0  0  0  0  0  0  0  0  0
    2.4426   -1.4314    0.0000 C   0  0  0  0  0  0  0  0  0  0  0  0
    1.6265   -1.8944    0.0000 C   0  0  0  0  0  0  0  0  0  0  0  0
    0.8089   -1.4257    0.0000 C   0  0  0  0  0  0  0  0  0  0  0  0
    0.8203   -0.4736    0.0000 C   0  0  0  0  0  0  0  0  0  0  0  0
    3.2554   -1.9091    0.0000 H   0  0  0  0  0  0  0  0  0  0  0  0
    1.6243   -2.8372    0.0000 H   0  0  0  0  0  0  0  0  0  0  0  0
    0.0000   -0.0000    0.0000 C   0  0  0  0  0  0  0  0  0  0  0  0
    0.0170    0.9422    0.0000 C   0  0  0  0  0  0  0  0  0  0  0  0
    0.8332    1.4053    0.0000 C   0  0  0  0  0  0  0  0  0  0  0  0
   -0.7934    1.4240    0.0000 H   0  0  0  0  0  0  0  0  0  0  0  0
    0.8400    2.3481    0.0000 H   0  0  0  0  0  0  0  0  0  0  0  0
   -0.0118   -1.8913    0.0000 C   0  0  0  0  0  0  0  0  0  0  0  0
   -0.8154   -1.4147    0.0000 C   0  0  0  0  0  0  0  0  0  0  0  0
   -0.8207   -0.4656    0.0000 C   0  0  0  0  0  0  0  0  0  0  0  0
   -1.6333   -1.8836    0.0000 H   0  0  0  0  0  0  0  0  0  0  0  0
   -1.6373    0.0070    0.0000 N   0  0  0  0  0  0  0  0  0  0  0  0
   -0.0208   -2.8256    0.0000 N   0  0  0  0  0  0  0  0  0  0  0  0
    4.0845   -0.5067    0.0000 N   0  0  0  0  0  0  0  0  0  0  0  0
   -2.0927    0.8334    0.0000 O   0  0  0  0  0  0  0  0  0  0  0  0
   -2.1253   -0.8006    0.0000 O   0  0  0  0  0  0  0  0  0  0  0  0
   -0.7236   -3.4412    0.0000 O   0  0  0  0  0  0  0  0  0  0  0  0
    0.8638   -3.1264    0.0000 O   0  0  0  0  0  0  0  0  0  0  0  0
    4.0775   -1.4502    0.0000 O   0  0  0  0  0  0  0  0  0  0  0  0
    4.9051   -0.0410    0.0000 O   0  0  0  0  0  0  0  0  0  0  0  0
  1  2  2  0  0  0  0
  1  7  1  0  0  0  0
  2  3  1  0  0  0  0
  2 26  1  0  0  0  0
  3  4  2  0  0  0  0
  3  9  1  0  0  0  0
  4  5  1  0  0  0  0
  5  6  2  0  0  0  0
  6  1  1  0  0  0  0
  6  8  1  0  0  0  0
  9 10  2  0  0  0  0
  9 13  1  0  0  0  0
 10 11  1  0  0  0  0
 10 14  1  0  0  0  0
 11 12  2  0  0  0  0
 11 20  1  0  0  0  0
 12  4  1  0  0  0  0
 12 15  1  0  0  0  0
 15 16  1  0  0  0  0
 16 17  2  0  0  0  0
 16 18  1  0  0  0  0
 17  5  1  0  0  0  0
 17 19  1  0  0  0  0
 20 21  2  0  0  0  0
 20 25  1  0  0  0  0
 21 22  1  0  0  0  0
 21 23  1  0  0  0  0
 22 15  2  0  0  0  0
 22 24  1  0  0  0  0
 24 27  2  0  0  0  0
 24 28  2  0  0  0  0
 25 29  2  0  0  0  0
 25 30  2  0  0  0  0
 26 31  2  0  0  0  0
 26 32  2  0  0  0  0
M  END
>  <activity>
Active

$$$$
mutag_d97
 OpenBabel01191712022D

 28 30  0  0  0  0  0  0  0  0999 V2000
   -3.3392    0.0007    0.0000 C   0  0  0  0  0  0  0  0  0  0  0  0
   -2.5045    0.4824    0.0000 C   0  0  0  0  0  0  0  0  0  0  0  0
   -1.6696    0.0003    0.0000 C   0  0  0  0  0  0  0  0  0  0  0  0
   -1.6698   -0.9640    0.0000 C   0  0  0  0  0  0  0  0  0  0  0  0
   -2.5049   -1.4457    0.0000 C   0  0  0  0  0  0  0  0  0  0  0  0
   -3.3394   -0.9636    0.0000 C   0  0  0  0  0  0  0  0  0  0  0  0
   -2.5043    1.4934    0.0000 H   0  0  0  0  0  0  0  0  0  0  0  0
   -2.5051   -2.4567    0.0000 H   0  0  0  0  0  0  0  0  0  0  0  0
   -4.2151   -1.4689    0.0000 H   0  0  0  0  0  0  0  0  0  0  0  0
    0.0000   -0.0000    0.0000 C   0  0  0  0  0  0  0  0  0  0  0  0
    0.8351    0.4817    0.0000 C   0  0  0  0  0  0  0  0  0  0  0  0
    1.6696   -0.0003    0.0000 C   0  0  0  0  0  0  0  0  0  0  0  0
    1.6694   -0.9646    0.0000 C   0  0  0  0  0  0  0  0  0  0  0  0
    0.8348   -1.4463    0.0000 C   0  0  0  0  0  0  0  0  0  0  0  0
   -0.0002   -0.9643    0.0000 C   0  0  0  0  0  0  0  0  0  0  0  0
    0.8355    1.4928    0.0000 H   0  0  0  0  0  0  0  0  0  0  0  0
    2.5449   -1.4703    0.0000 H   0  0  0  0  0  0  0  0  0  0  0  0
    0.8347   -2.4574    0.0000 H   0  0  0  0  0  0  0  0  0  0  0  0
   -0.8350    0.4821    0.0000 C   0  0  0  0  0  0  0  0  0  0  0  0
   -0.8349    1.4931    0.0000 H   0  0  0  0  0  0  0  0  0  0  0  0
   -1.7105    0.9876    0.0000 H   0  0  0  0  0  0  0  0  0  0  0  0
    2.5043    0.4813    0.0000 C   0  0  0  0  0  0  0  0  0  0  0  0
    3.4470    0.6815    0.0000 H   0  0  0  0  0  0  0  0  0  0  0  0
    2.8023    1.3978    0.0000 H   0  0  0  0  0  0  0  0  0  0  0  0
    2.7044   -0.4614    0.0000 H   0  0  0  0  0  0  0  0  0  0  0  0
   -4.1737    0.4826    0.0000 N   0  0  0  0  0  0  0  0  0  0  0  0
   -4.2743    1.4411    0.0000 O   0  0  0  0  0  0  0  0  0  0  0  0
   -4.9534   -0.0837    0.0000 O   0  0  0  0  0  0  0  0  0  0  0  0
  1  2  2  0  0  0  0
  1 26  1  0  0  0  0
  2  3  1  0  0  0  0
  2  7  1  0  0  0  0
  3  4  2  0  0  0  0
  3 19  1  0  0  0  0
  4  5  1  0  0  0  0
  4 15  1  0  0  0  0
  5  6  2  0  0  0  0
  5  8  1  0  0  0  0
  6  1  1  0  0  0  0
  6  9  1  0  0  0  0
 10 11  2  0  0  0  0
 11 12  1  0  0  0  0
 11 16  1  0  0  0  0
 12 13  2  0  0  0  0
 12 22  1  0  0  0  0
 13 14  1  0  0  0  0
 13 17  1  0  0  0  0
 14 15  2  0  0  0  0
 14 18  1  0  0  0  0
 15 10  1  0  0  0  0
 19 10  1  0  0  0  0
 19 20  1  0  0  0  0
 19 21  1  0  0  0  0
 22 23  1  0  0  0  0
 22 24  1  0  0  0  0
 22 25  1  0  0  0  0
 26 27  2  0  0  0  0
 26 28  2  0  0  0  0
M  END
>  <activity>
Active

$$$$
mutag_d98
 OpenBabel01191712022D

 19 20  0  0  0  0  0  0  0  0999 V2000
   -1.7321    1.0000    0.0000 C   0  0  0  0  0  0  0  0  0  0  0  0
   -0.8660    1.5000    0.0000 C   0  0  0  0  0  0  0  0  0  0  0  0
    0.0000    1.0000    0.0000 C   0  0  0  0  0  0  0  0  0  0  0  0
    0.0000    0.0000    0.0000 C   0  0  0  0  0  0  0  0  0  0  0  0
   -0.8660   -0.5000    0.0000 C   0  0  0  0  0  0  0  0  0  0  0  0
   -1.7321    0.0000    0.0000 C   0  0  0  0  0  0  0  0  0  0  0  0
   -2.5981    1.5000    0.0000 H   0  0  0  0  0  0  0  0  0  0  0  0
   -0.8660    2.5000    0.0000 H   0  0  0  0  0  0  0  0  0  0  0  0
   -2.5981   -0.5000    0.0000 H   0  0  0  0  0  0  0  0  0  0  0  0
    0.8660    1.5000    0.0000 C   0  0  0  0  0  0  0  0  0  0  0  0
    1.7321    1.0000    0.0000 N   0  0  0  0  0  0  0  0  0  0  0  0
    1.7321   -0.0000    0.0000 C   0  0  0  0  0  0  0  0  0  0  0  0
    0.8660   -0.5000    0.0000 C   0  0  0  0  0  0  0  0  0  0  0  0
    0.8660    2.5000    0.0000 H   0  0  0  0  0  0  0  0  0  0  0  0
    2.5981   -0.5000    0.0000 H   0  0  0  0  0  0  0  0  0  0  0  0
    0.8660   -1.5000    0.0000 H   0  0  0  0  0  0  0  0  0  0  0  0
   -0.8660   -1.5000    0.0000 N   0  0  0  0  0  0  0  0  0  0  0  0
   -1.7321   -2.0000    0.0000 O   0  0  0  0  0  0  0  0  0  0  0  0
   -0.0000   -2.0000    0.0000 O   0  0  0  0  0  0  0  0  0  0  0  0
  1  2  2  0  0  0  0
  1  7  1  0  0  0  0
  2  3  1  0  0  0  0
  2  8  1  0  0  0  0
  3  4  2  0  0  0  0
  3 10  1  0  0  0  0
  4  5  1  0  0  0  0
  5  6  2  0  0  0  0
  5 17  1  0  0  0  0
  6  1  1  0  0  0  0
  6  9  1  0  0  0  0
 10 11  2  0  0  0  0
 10 14  1  0  0  0  0
 11 12  1  0  0  0  0
 12 13  2  0  0  0  0
 12 15  1  0  0  0  0
 13  4  1  0  0  0  0
 13 16  1  0  0  0  0
 17 19  2  0  0  0  0
 18 17  2  0  0  0  0
M  END
>  <activity>
Inactive

$$$$
mutag_d99
 OpenBabel01191712022D

 22 24  0  0  0  0  0  0  0  0999 V2000
   -2.4136    1.3930    0.0000 C   0  0  0  0  0  0  0  0  0  0  0  0
   -1.6091    1.8576    0.0000 C   0  0  0  0  0  0  0  0  0  0  0  0
   -0.8048    1.3933    0.0000 C   0  0  0  0  0  0  0  0  0  0  0  0
   -0.8046    0.4646    0.0000 C   0  0  0  0  0  0  0  0  0  0  0  0
   -1.6088   -0.0003    0.0000 C   0  0  0  0  0  0  0  0  0  0  0  0
   -2.4134    0.4643    0.0000 C   0  0  0  0  0  0  0  0  0  0  0  0
   -0.0003    1.8579    0.0000 C   0  0  0  0  0  0  0  0  0  0  0  0
    0.8043    1.3936    0.0000 C   0  0  0  0  0  0  0  0  0  0  0  0
    0.8045    0.4649    0.0000 C   0  0  0  0  0  0  0  0  0  0  0  0
   -0.0000   -0.0000    0.0000 C   0  0  0  0  0  0  0  0  0  0  0  0
   -1.6086   -0.9291    0.0000 C   0  0  0  0  0  0  0  0  0  0  0  0
    0.0002   -0.9288    0.0000 C   0  0  0  0  0  0  0  0  0  0  0  0
   -2.2652   -1.5859    0.0000 N   0  0  0  0  0  0  0  0  0  0  0  0
   -3.0928   -1.1644    0.0000 O   0  0  0  0  0  0  0  0  0  0  0  0
   -2.2164   -2.5134    0.0000 O   0  0  0  0  0  0  0  0  0  0  0  0
   -3.2527    1.8773    0.0000 H   0  0  0  0  0  0  0  0  0  0  0  0
   -1.6092    2.8264    0.0000 H   0  0  0  0  0  0  0  0  0  0  0  0
   -3.2524   -0.0203    0.0000 H   0  0  0  0  0  0  0  0  0  0  0  0
   -0.0005    2.8267    0.0000 H   0  0  0  0  0  0  0  0  0  0  0  0
    1.6432    1.8783    0.0000 H   0  0  0  0  0  0  0  0  0  0  0  0
    1.6436   -0.0193    0.0000 H   0  0  0  0  0  0  0  0  0  0  0  0
    0.6854   -1.6137    0.0000 H   0  0  0  0  0  0  0  0  0  0  0  0
  1  2  2  0  0  0  0
  1 16  1  0  0  0  0
  2  3  1  0  0  0  0
  2 17  1  0  0  0  0
  3  4  2  0  0  0  0
  3  7  1  0  0  0  0
  4  5  1  0  0  0  0
  5  6  2  0  0  0  0
  5 11  1  0  0  0  0
  6  1  1  0  0  0  0
  6 18  1  0  0  0  0
  7  8  2  0  0  0  0
  7 19  1  0  0  0  0
  8  9  1  0  0  0  0
  8 20  1  0  0  0  0
  9 10  2  0  0  0  0
  9 21  1  0  0  0  0
 10  4  1  0  0  0  0
 11 12  2  0  0  0  0
 11 13  1  0  0  0  0
 12 10  1  0  0  0  0
 12 22  1  0  0  0  0
 13 14  2  0  0  0  0
 13 15  2  0  0  0  0
M  END
>  <activity>
Active

$$$$
